./a.out sampleInput


        *** GPGPU-Sim Simulator Version 4.0.0  [build gpgpu-sim_git-commit-6a97d1e857c37ef4b58a9a0d5c18960967e9d665_modified_0] ***


GPGPU-Sim PTX: simulation mode 0 (can change with PTX_SIM_MODE_FUNC environment variable:
               1=functional simulation only, 0=detailed performance simulator)
GPGPU-Sim PTX: overriding embedded ptx with ptx file (PTX_SIM_USE_PTX_FILE is set)
GPGPU-Sim: Configuration options:

-save_embedded_ptx                      0 # saves ptx files embedded in binary as <n>.ptx
-keep                                   0 # keep intermediate files created by GPGPU-Sim when interfacing with external programs
-gpgpu_ptx_save_converted_ptxplus                    0 # Saved converted ptxplus to a file
-gpgpu_occupancy_sm_number                   70 # The SM number to pass to ptxas when getting register usage for computing GPU occupancy. This parameter is required in the config.
-ptx_opcode_latency_int      4,13,4,5,145,32 # Opcode latencies for integers <ADD,MAX,MUL,MAD,DIV,SHFL>Default 1,1,19,25,145,32
-ptx_opcode_latency_fp          4,13,4,5,39 # Opcode latencies for single precision floating points <ADD,MAX,MUL,MAD,DIV>Default 1,1,1,1,30
-ptx_opcode_latency_dp         8,19,8,8,330 # Opcode latencies for double precision floating points <ADD,MAX,MUL,MAD,DIV>Default 8,8,8,8,335
-ptx_opcode_latency_sfu                  100 # Opcode latencies for SFU instructionsDefault 8
-ptx_opcode_latency_tesnor                   64 # Opcode latencies for Tensor instructionsDefault 64
-ptx_opcode_initiation_int          2,2,2,2,8,4 # Opcode initiation intervals for integers <ADD,MAX,MUL,MAD,DIV,SHFL>Default 1,1,4,4,32,4
-ptx_opcode_initiation_fp            2,2,2,2,4 # Opcode initiation intervals for single precision floating points <ADD,MAX,MUL,MAD,DIV>Default 1,1,1,1,5
-ptx_opcode_initiation_dp          4,4,4,4,130 # Opcode initiation intervals for double precision floating points <ADD,MAX,MUL,MAD,DIV>Default 8,8,8,8,130
-ptx_opcode_initiation_sfu                    8 # Opcode initiation intervals for sfu instructionsDefault 8
-ptx_opcode_initiation_tensor                   64 # Opcode initiation intervals for tensor instructionsDefault 64
-cdp_latency         7200,8000,100,12000,1600 # CDP API latency <cudaStreamCreateWithFlags, cudaGetParameterBufferV2_init_perWarp, cudaGetParameterBufferV2_perKernel, cudaLaunchDeviceV2_init_perWarp, cudaLaunchDevicV2_perKernel>Default 7200,8000,100,12000,1600
-network_mode                           1 # Interconnection network mode
-inter_config_file   config_volta_islip.icnt # Interconnection network config file
-inct_in_buffer_limit                   64 # in_buffer_limit
-inct_out_buffer_limit                   64 # out_buffer_limit
-inct_subnets                           2 # subnets
-gpgpu_ptx_use_cuobjdump                    1 # Use cuobjdump to extract ptx and sass from binaries
-gpgpu_experimental_lib_support                    0 # Try to extract code from cuda libraries [Broken because of unknown cudaGetExportTable]
-checkpoint_option                      0 #  checkpointing flag (0 = no checkpoint)
-checkpoint_kernel                      1 #  checkpointing during execution of which kernel (1- 1st kernel)
-checkpoint_CTA                         0 #  checkpointing after # of CTA (< less than total CTA)
-resume_option                          0 #  resume flag (0 = no resume)
-resume_kernel                          0 #  Resume from which kernel (1= 1st kernel)
-resume_CTA                             0 #  resume from which CTA 
-checkpoint_CTA_t                       0 #  resume from which CTA 
-checkpoint_insn_Y                      0 #  resume from which CTA 
-gpgpu_ptx_convert_to_ptxplus                    0 # Convert SASS (native ISA) to ptxplus and run ptxplus
-gpgpu_ptx_force_max_capability                   70 # Force maximum compute capability
-gpgpu_ptx_inst_debug_to_file                    0 # Dump executed instructions' debug information to file
-gpgpu_ptx_inst_debug_file       inst_debug.txt # Executed instructions' debug output file
-gpgpu_ptx_inst_debug_thread_uid                    1 # Thread UID for executed instructions' debug output
-gpgpu_simd_model                       1 # 1 = post-dominator
-gpgpu_shader_core_pipeline              2048:32 # shader core pipeline config, i.e., {<nthread>:<warpsize>}
-gpgpu_tex_cache:l1  N:16:128:24,L:R:m:N:L,T:128:4,128:2 # per-shader L1 texture cache  (READ-ONLY) config  {<nsets>:<bsize>:<assoc>,<rep>:<wr>:<alloc>:<wr_alloc>,<mshr>:<N>:<merge>,<mq>:<rf>}
-gpgpu_const_cache:l1 N:128:64:8,L:R:f:N:L,S:2:64,4 # per-shader L1 constant memory cache  (READ-ONLY) config  {<nsets>:<bsize>:<assoc>,<rep>:<wr>:<alloc>:<wr_alloc>,<mshr>:<N>:<merge>,<mq>} 
-gpgpu_cache:il1     N:64:128:16,L:R:f:N:L,S:2:48,4 # shader L1 instruction cache config  {<nsets>:<bsize>:<assoc>,<rep>:<wr>:<alloc>:<wr_alloc>,<mshr>:<N>:<merge>,<mq>} 
-gpgpu_cache:dl1     S:4:128:64,L:L:s:N:L,A:256:8,16:0,32 # per-shader L1 data cache config  {<nsets>:<bsize>:<assoc>,<rep>:<wr>:<alloc>:<wr_alloc>,<mshr>:<N>:<merge>,<mq> | none}
-l1_latency                            28 # L1 Hit Latency
-smem_latency                          19 # smem Latency
-gpgpu_cache:dl1PrefL1                 none # per-shader L1 data cache config  {<nsets>:<bsize>:<assoc>,<rep>:<wr>:<alloc>:<wr_alloc>,<mshr>:<N>:<merge>,<mq> | none}
-gpgpu_cache:dl1PrefShared                 none # per-shader L1 data cache config  {<nsets>:<bsize>:<assoc>,<rep>:<wr>:<alloc>:<wr_alloc>,<mshr>:<N>:<merge>,<mq> | none}
-gmem_skip_L1D                          0 # global memory access skip L1D cache (implements -Xptxas -dlcm=cg, default=no skip)
-gpgpu_perfect_mem                      0 # enable perfect memory mode (no cache miss)
-n_regfile_gating_group                    4 # group of lanes that should be read/written together)
-gpgpu_clock_gated_reg_file                    0 # enable clock gated reg file for power calculations
-gpgpu_clock_gated_lanes                    0 # enable clock gated lanes for power calculations
-gpgpu_shader_registers                65536 # Number of registers per shader core. Limits number of concurrent CTAs. (default 8192)
-gpgpu_registers_per_block                 8192 # Maximum number of registers per CTA. (default 8192)
-gpgpu_ignore_resources_limitation                    0 # gpgpu_ignore_resources_limitation (default 0)
-gpgpu_shader_cta                      32 # Maximum number of concurrent CTAs in shader (default 8)
-gpgpu_num_cta_barriers                   16 # Maximum number of named barriers per CTA (default 16)
-gpgpu_n_clusters                      40 # number of processing clusters
-gpgpu_n_cores_per_cluster                    2 # number of simd cores per cluster
-gpgpu_n_cluster_ejection_buffer_size                   32 # number of packets in ejection buffer
-gpgpu_n_ldst_response_buffer_size                    2 # number of response packets in ld/st unit ejection buffer
-gpgpu_shmem_per_block                49152 # Size of shared memory per thread block or CTA (default 48kB)
-gpgpu_shmem_size                   16384 # Size of shared memory per shader core (default 16kB)
-adaptive_volta_cache_config                    1 # adaptive_volta_cache_config
-gpgpu_shmem_size                   98304 # Size of shared memory per shader core (default 16kB)
-gpgpu_shmem_size_PrefL1                16384 # Size of shared memory per shader core (default 16kB)
-gpgpu_shmem_size_PrefShared                16384 # Size of shared memory per shader core (default 16kB)
-gpgpu_shmem_num_banks                   32 # Number of banks in the shared memory in each shader core (default 16)
-gpgpu_shmem_limited_broadcast                    0 # Limit shared memory to do one broadcast per cycle (default on)
-gpgpu_shmem_warp_parts                    1 # Number of portions a warp is divided into for shared memory bank conflict check 
-mem_unit_ports                         4 # The number of memory transactions allowed per core cycle
-gpgpu_shmem_warp_parts                    1 # Number of portions a warp is divided into for shared memory bank conflict check 
-gpgpu_warpdistro_shader                   -1 # Specify which shader core to collect the warp size distribution from
-gpgpu_warp_issue_shader                    0 # Specify which shader core to collect the warp issue distribution from
-gpgpu_local_mem_map                    1 # Mapping from local memory space address to simulated GPU physical address space (default = enabled)
-gpgpu_num_reg_banks                    8 # Number of register banks (default = 8)
-gpgpu_reg_bank_use_warp_id                    0 # Use warp ID in mapping registers to banks (default = off)
-sub_core_model                         1 # Sub Core Volta/Pascal model (default = off)
-enable_specialized_operand_collector                    0 # enable_specialized_operand_collector
-gpgpu_operand_collector_num_units_sp                    4 # number of collector units (default = 4)
-gpgpu_operand_collector_num_units_dp                    0 # number of collector units (default = 0)
-gpgpu_operand_collector_num_units_sfu                    4 # number of collector units (default = 4)
-gpgpu_operand_collector_num_units_int                    0 # number of collector units (default = 0)
-gpgpu_operand_collector_num_units_tensor_core                    4 # number of collector units (default = 4)
-gpgpu_operand_collector_num_units_mem                    2 # number of collector units (default = 2)
-gpgpu_operand_collector_num_units_gen                    8 # number of collector units (default = 0)
-gpgpu_operand_collector_num_in_ports_sp                    1 # number of collector unit in ports (default = 1)
-gpgpu_operand_collector_num_in_ports_dp                    0 # number of collector unit in ports (default = 0)
-gpgpu_operand_collector_num_in_ports_sfu                    1 # number of collector unit in ports (default = 1)
-gpgpu_operand_collector_num_in_ports_int                    0 # number of collector unit in ports (default = 0)
-gpgpu_operand_collector_num_in_ports_tensor_core                    1 # number of collector unit in ports (default = 1)
-gpgpu_operand_collector_num_in_ports_mem                    1 # number of collector unit in ports (default = 1)
-gpgpu_operand_collector_num_in_ports_gen                    8 # number of collector unit in ports (default = 0)
-gpgpu_operand_collector_num_out_ports_sp                    1 # number of collector unit in ports (default = 1)
-gpgpu_operand_collector_num_out_ports_dp                    0 # number of collector unit in ports (default = 0)
-gpgpu_operand_collector_num_out_ports_sfu                    1 # number of collector unit in ports (default = 1)
-gpgpu_operand_collector_num_out_ports_int                    0 # number of collector unit in ports (default = 0)
-gpgpu_operand_collector_num_out_ports_tensor_core                    1 # number of collector unit in ports (default = 1)
-gpgpu_operand_collector_num_out_ports_mem                    1 # number of collector unit in ports (default = 1)
-gpgpu_operand_collector_num_out_ports_gen                    8 # number of collector unit in ports (default = 0)
-gpgpu_coalesce_arch                   60 # Coalescing arch (GT200 = 13, Fermi = 20)
-gpgpu_num_sched_per_core                    4 # Number of warp schedulers per core
-gpgpu_max_insn_issue_per_warp                    1 # Max number of instructions that can be issued per warp in one cycle by scheduler (either 1 or 2)
-gpgpu_dual_issue_diff_exec_units                    1 # should dual issue use two different execution unit resources (Default = 1)
-gpgpu_simt_core_sim_order                    1 # Select the simulation order of cores in a cluster (0=Fix, 1=Round-Robin)
-gpgpu_pipeline_widths 4,4,4,4,4,4,4,4,4,4,8,4,4 # Pipeline widths ID_OC_SP,ID_OC_DP,ID_OC_INT,ID_OC_SFU,ID_OC_MEM,OC_EX_SP,OC_EX_DP,OC_EX_INT,OC_EX_SFU,OC_EX_MEM,EX_WB,ID_OC_TENSOR_CORE,OC_EX_TENSOR_CORE
-gpgpu_tensor_core_avail                    1 # Tensor Core Available (default=0)
-gpgpu_num_sp_units                     4 # Number of SP units (default=1)
-gpgpu_num_dp_units                     4 # Number of DP units (default=0)
-gpgpu_num_int_units                    4 # Number of INT units (default=0)
-gpgpu_num_sfu_units                    4 # Number of SF units (default=1)
-gpgpu_num_tensor_core_units                    4 # Number of tensor_core units (default=1)
-gpgpu_num_mem_units                    1 # Number if ldst units (default=1) WARNING: not hooked up to anything
-gpgpu_scheduler                      gto # Scheduler configuration: < lrr | gto | two_level_active > If two_level_active:<num_active_warps>:<inner_prioritization>:<outer_prioritization>For complete list of prioritization values see shader.h enum scheduler_prioritization_typeDefault: gto
-gpgpu_concurrent_kernel_sm                    0 # Support concurrent kernels on a SM (default = disabled)
-perf_sim_memcpy                        1 # Fill the L2 cache on memcpy
-gpgpu_dram_scheduler                    1 # 0 = fifo, 1 = FR-FCFS (defaul)
-gpgpu_dram_partition_queues          64:64:64:64 # i2$:$2d:d2$:$2i
-l2_ideal                               0 # Use a ideal L2 cache that always hit
-gpgpu_cache:dl2     S:32:128:24,L:B:m:L:L,A:192:4,32:0,32 # unified banked L2 data cache config  {<nsets>:<bsize>:<assoc>,<rep>:<wr>:<alloc>:<wr_alloc>,<mshr>:<N>:<merge>,<mq>}
-gpgpu_cache:dl2_texture_only                    0 # L2 cache used for texture only
-gpgpu_n_mem                           24 # number of memory modules (e.g. memory controllers) in gpu
-gpgpu_n_sub_partition_per_mchannel                    2 # number of memory subpartition in each memory module
-gpgpu_n_mem_per_ctrlr                    1 # number of memory chips per memory controller
-gpgpu_memlatency_stat                   14 # track and display latency statistics 0x2 enables MC, 0x4 enables queue logs
-gpgpu_frfcfs_dram_sched_queue_size                   64 # 0 = unlimited (default); # entries per chip
-gpgpu_dram_return_queue_size                  192 # 0 = unlimited (default); # entries per chip
-gpgpu_dram_buswidth                   16 # default = 4 bytes (8 bytes per cycle at DDR)
-gpgpu_dram_burst_length                    2 # Burst length of each DRAM request (default = 4 data bus cycle)
-dram_data_command_freq_ratio                    2 # Frequency ratio between DRAM data bus and command bus (default = 2 times, i.e. DDR)
-gpgpu_dram_timing_opt nbk=16:CCD=1:RRD=3:RCD=12:RAS=28:RP=12:RC=40: CL=12:WL=2:CDLR=3:WR=10:nbkgrp=4:CCDL=2:RTPL=3 # DRAM timing parameters = {nbk:tCCD:tRRD:tRCD:tRAS:tRP:tRC:CL:WL:tCDLR:tWR:nbkgrp:tCCDL:tRTPL}
-rop_latency                          120 # ROP queue latency (default 85)
-dram_latency                         100 # DRAM latency (default 30)
-dual_bus_interface                     1 # dual_bus_interface (default = 0) 
-dram_bnk_indexing_policy                    0 # dram_bnk_indexing_policy (0 = normal indexing, 1 = Xoring with the higher bits) (Default = 0)
-dram_bnkgrp_indexing_policy                    1 # dram_bnkgrp_indexing_policy (0 = take higher bits, 1 = take lower bits) (Default = 0)
-Seperate_Write_Queue_Enable                    0 # Seperate_Write_Queue_Enable
-Write_Queue_Size                32:28:16 # Write_Queue_Size
-Elimnate_rw_turnaround                    0 # elimnate_rw_turnaround i.e set tWTR and tRTW = 0
-icnt_flit_size                        40 # icnt_flit_size
-gpgpu_mem_addr_mapping dramid@8;00000000.00000000.00000000.00000000.0000RRRR.RRRRRRRR.RBBBCCCB.CCCSSSSS # mapping memory address to dram model {dramid@<start bit>;<memory address map>}
-gpgpu_mem_addr_test                    0 # run sweep test to check address mapping for aliased address
-gpgpu_mem_address_mask                    1 # 0 = old addressing mask, 1 = new addressing mask, 2 = new add. mask + flipped bank sel and chip sel bits
-memory_partition_indexing                    0 # 0 = no indexing, 1 = bitwise xoring, 2 = IPoly, 3 = custom indexing
-gpuwattch_xml_file         gpuwattch.xml # GPUWattch XML file
-power_simulation_enabled                    0 # Turn on power simulator (1=On, 0=Off)
-power_per_cycle_dump                    0 # Dump detailed power output each cycle
-power_trace_enabled                    0 # produce a file for the power trace (1=On, 0=Off)
-power_trace_zlevel                     6 # Compression level of the power trace output log (0=no comp, 9=highest)
-steady_power_levels_enabled                    0 # produce a file for the steady power levels (1=On, 0=Off)
-steady_state_definition                  8:4 # allowed deviation:number of samples
-gpgpu_max_cycle                        0 # terminates gpu simulation early (0 = no limit)
-gpgpu_max_insn                         0 # terminates gpu simulation early (0 = no limit)
-gpgpu_max_cta                          0 # terminates gpu simulation early (0 = no limit)
-gpgpu_runtime_stat                   500 # display runtime statistics such as dram utilization {<freq>:<flag>}
-liveness_message_freq                    1 # Minimum number of seconds between simulation liveness messages (0 = always print)
-gpgpu_compute_capability_major                    7 # Major compute capability version number
-gpgpu_compute_capability_minor                    0 # Minor compute capability version number
-gpgpu_flush_l1_cache                    1 # Flush L1 cache at the end of each kernel call
-gpgpu_flush_l2_cache                    0 # Flush L2 cache at the end of each kernel call
-gpgpu_deadlock_detect                    1 # Stop the simulation at deadlock (1=on (default), 0=off)
-gpgpu_ptx_instruction_classification                    0 # if enabled will classify ptx instruction types per kernel (Max 255 kernels now)
-gpgpu_ptx_sim_mode                     1 # Select between Performance (default) or Functional simulation (1)
-gpgpu_clock_domains 1200.0:1200.0:1200.0:850.0 # Clock Domain Frequencies in MhZ {<Core Clock>:<ICNT Clock>:<L2 Clock>:<DRAM Clock>}
-gpgpu_max_concurrent_kernel                    8 # maximum kernels that can run concurrently on GPU
-gpgpu_cflog_interval                    0 # Interval between each snapshot in control flow logger
-visualizer_enabled                     0 # Turn on visualizer output (1=On, 0=Off)
-visualizer_outputfile                 NULL # Specifies the output log file for visualizer
-visualizer_zlevel                      6 # Compression level of the visualizer output log (0=no comp, 9=highest)
-gpgpu_stack_size_limit                 1024 # GPU thread stack size
-gpgpu_heap_size_limit              8388608 # GPU malloc heap size 
-gpgpu_runtime_sync_depth_limit                    2 # GPU device runtime synchronize depth
-gpgpu_runtime_pending_launch_count_limit                 2048 # GPU device runtime pending launch count
-trace_enabled                          0 # Turn on traces
-trace_components                    none # comma seperated list of traces to enable. Complete list found in trace_streams.tup. Default none
-trace_sampling_core                    0 # The core which is printed using CORE_DPRINTF. Default 0
-trace_sampling_memory_partition                   -1 # The memory partition which is printed using MEMPART_DPRINTF. Default -1 (i.e. all)
-enable_ptx_file_line_stats                    1 # Turn on PTX source line statistic profiling. (1 = On)
-ptx_line_stats_filename gpgpu_inst_stats.txt # Output file for PTX source line statistics.
-gpgpu_kernel_launch_latency                    0 # Kernel launch latency in cycles. Default: 0
-gpgpu_cdp_enabled                      0 # Turn on CDP
DRAM Timing Options:
nbk                                    16 # number of banks
CCD                                     1 # column to column delay
RRD                                     3 # minimal delay between activation of rows in different banks
RCD                                    12 # row to column delay
RAS                                    28 # time needed to activate row
RP                                     12 # time needed to precharge (deactivate) row
RC                                     40 # row cycle time
CDLR                                    3 # switching from write to read (changes tWTR)
WR                                     10 # last data-in to row precharge
CL                                     12 # CAS latency
WL                                      2 # Write latency
nbkgrp                                  4 # number of bank groups
CCDL                                    2 # column to column delay between accesses to different bank groups
RTPL                                    3 # read to precharge delay between accesses to different bank groups
Total number of memory sub partition = 48
addr_dec_mask[CHIP]  = 0000000000000000 	high:64 low:0
addr_dec_mask[BK]    = 0000000000007100 	high:15 low:8
addr_dec_mask[ROW]   = 000000000fff8000 	high:28 low:15
addr_dec_mask[COL]   = 0000000000000eff 	high:12 low:0
addr_dec_mask[BURST] = 000000000000001f 	high:5 low:0
sub_partition_id_mask = 0000000000000100
GPGPU-Sim uArch: clock freqs: 1200000000.000000:1200000000.000000:1200000000.000000:850000000.000000
GPGPU-Sim uArch: clock periods: 0.00000000083333333333:0.00000000083333333333:0.00000000083333333333:0.00000000117647058824
*** Initializing Memory Statistics ***
GPGPU-Sim uArch: interconnect node map (shaderID+MemID to icntID)
GPGPU-Sim uArch: Memory nodes ID start from index: 40
GPGPU-Sim uArch:    0   1   2   3   4   5   6   7   8
GPGPU-Sim uArch:    9  10  11  12  13  14  15  16  17
GPGPU-Sim uArch:   18  19  20  21  22  23  24  25  26
GPGPU-Sim uArch:   27  28  29  30  31  32  33  34  35
GPGPU-Sim uArch:   36  37  38  39  40  41  42  43  44
GPGPU-Sim uArch:   45  46  47  48  49  50  51  52  53
GPGPU-Sim uArch:   54  55  56  57  58  59  60  61  62
GPGPU-Sim uArch:   63  64  65  66  67  68  69  70  71
GPGPU-Sim uArch:   72  73  74  75  76  77  78  79  80
GPGPU-Sim uArch:   81  82  83  84  85  86  87
GPGPU-Sim uArch: interconnect node reverse map (icntID to shaderID+MemID)
GPGPU-Sim uArch: Memory nodes start from ID: 40
GPGPU-Sim uArch:    0   1   2   3   4   5   6   7   8
GPGPU-Sim uArch:    9  10  11  12  13  14  15  16  17
GPGPU-Sim uArch:   18  19  20  21  22  23  24  25  26
GPGPU-Sim uArch:   27  28  29  30  31  32  33  34  35
GPGPU-Sim uArch:   36  37  38  39  40  41  42  43  44
GPGPU-Sim uArch:   45  46  47  48  49  50  51  52  53
GPGPU-Sim uArch:   54  55  56  57  58  59  60  61  62
GPGPU-Sim uArch:   63  64  65  66  67  68  69  70  71
GPGPU-Sim uArch:   72  73  74  75  76  77  78  79  80
GPGPU-Sim uArch:   81  82  83  84  85  86  87
6e89a800976c87316d7233f8bc16521a  /root/gpgpu-sim/2d_Conv/CUDA_Conv/a.out
Extracting PTX file and ptxas options    1: a.1.sm_30.ptx -arch=sm_30
GPGPU-Sim uArch: performance model initialization complete.
self exe links to: /root/gpgpu-sim/2d_Conv/CUDA_Conv/a.out
self exe links to: /root/gpgpu-sim/2d_Conv/CUDA_Conv/a.out
9.1
GPGPU-Sim PTX: __cudaRegisterFatBinary, fat_cubin_handle = 1, filename=default
self exe links to: /root/gpgpu-sim/2d_Conv/CUDA_Conv/a.out
Running md5sum using "md5sum /root/gpgpu-sim/2d_Conv/CUDA_Conv/a.out "
self exe links to: /root/gpgpu-sim/2d_Conv/CUDA_Conv/a.out
Extracting specific PTX file named a.1.sm_30.ptx 
GPGPU-Sim PTX: __cudaRegisterFunction _Z14convolution_2dPdS_iiii : hostFun 0x0x4023f9, fat_cubin_handle = 1
GPGPU-Sim PTX: Parsing a.1.sm_30.ptx
GPGPU-Sim PTX: allocating constant region for "filter_d" from 0x100 to 0x420 (global memory space) 1
GPGPU-Sim PTX: instruction assembly for function '_Z14convolution_2dPdS_iiii'...   done.
GPGPU-Sim PTX: finished parsing EMBEDDED .ptx file a.1.sm_30.ptx
GPGPU-Sim PTX: loading globals with explicit initializers... 
GPGPU-Sim PTX: finished loading globals (0 bytes total).
GPGPU-Sim PTX: loading constants with explicit initializers...  done.
GPGPU-Sim PTX: Loading PTXInfo from a.1.sm_30.ptx
GPGPU-Sim PTX: Binary info : gmem=0, cmem=800
GPGPU-Sim PTX: Kernel '_Z14convolution_2dPdS_iiii' : regs=24, lmem=0, smem=0, cmem=352
GPGPU-Sim PTX: __cudaRegisterVar: hostVar = 0x609340; deviceAddress = filter_d; deviceName = filter_d
GPGPU-Sim PTX: __cudaRegisterVar: Registering const memory space of 800 bytes
GPGPU-Sim PTX registering constant filter_d (800 bytes) to name mapping
GPGPU-Sim PTX: cudaMemcpyToSymbol: symbol = 0x609340
GPGPU-Sim PTX: starting gpgpu_ptx_sim_memcpy_symbol with hostVar 0x0x609340
GPGPU-Sim PTX: gpgpu_ptx_sim_memcpy_symbol: Found PTX symbol w/ hostVar=0x609340
GPGPU-Sim PTX: gpgpu_ptx_sim_memcpy_symbol: copying const memory 800 bytes  to  symbol filter_d+0 @0x100 ...
GPGPU-Sim PTX: Setting up arguments for 8 bytes starting at 0x7ffed0ee08c8..
GPGPU-Sim PTX: Setting up arguments for 8 bytes starting at 0x7ffed0ee08c0..
GPGPU-Sim PTX: Setting up arguments for 4 bytes starting at 0x7ffed0ee08bc..
GPGPU-Sim PTX: Setting up arguments for 4 bytes starting at 0x7ffed0ee08b8..
GPGPU-Sim PTX: Setting up arguments for 4 bytes starting at 0x7ffed0ee08b4..
GPGPU-Sim PTX: Setting up arguments for 4 bytes starting at 0x7ffed0ee08b0..

GPGPU-Sim PTX: cudaLaunch for 0x0x4023f9 (mode=functional simulation) on stream 0
GPGPU-Sim PTX: finding reconvergence points for '_Z14convolution_2dPdS_iiii'...
GPGPU-Sim PTX: Finding dominators for '_Z14convolution_2dPdS_iiii'...
GPGPU-Sim PTX: Finding immediate dominators for '_Z14convolution_2dPdS_iiii'...
GPGPU-Sim PTX: Finding postdominators for '_Z14convolution_2dPdS_iiii'...
GPGPU-Sim PTX: Finding immediate postdominators for '_Z14convolution_2dPdS_iiii'...
GPGPU-Sim PTX: pre-decoding instructions for '_Z14convolution_2dPdS_iiii'...
GPGPU-Sim PTX: reconvergence points for _Z14convolution_2dPdS_iiii...
GPGPU-Sim PTX:  1 (potential) branch divergence @  PC=0x040 (a.1.sm_30.ptx:39) @%p1 bra BB0_36;
GPGPU-Sim PTX:    immediate post dominator      @  PC=0x648 (a.1.sm_30.ptx:300) add.s32 %r125, %r17, %r19;
GPGPU-Sim PTX:  2 (potential) branch divergence @  PC=0x060 (a.1.sm_30.ptx:46) @%p2 bra BB0_35;
GPGPU-Sim PTX:    immediate post dominator      @  PC=0x630 (a.1.sm_30.ptx:295) add.s32 %r145, %r145, 1;
GPGPU-Sim PTX:  3 (potential) branch divergence @  PC=0x0a8 (a.1.sm_30.ptx:56) @%p3 bra BB0_4;
GPGPU-Sim PTX:    immediate post dominator      @  PC=0x3f8 (a.1.sm_30.ptx:195) setp.lt.u32%p25, %r18, 4;
GPGPU-Sim PTX:  4 (potential) branch divergence @  PC=0x0b8 (a.1.sm_30.ptx:59) @%p4 bra BB0_6;
GPGPU-Sim PTX:    immediate post dominator      @  PC=0x300 (a.1.sm_30.ptx:156) mad.lo.s32 %r71, %r25, %r26, %r3;
GPGPU-Sim PTX:  5 (potential) branch divergence @  PC=0x0c0 (a.1.sm_30.ptx:60) bra.uni BB0_7;
GPGPU-Sim PTX:    immediate post dominator      @  PC=0x0f0 (a.1.sm_30.ptx:72) setp.eq.s32%p5, %r24, 2;
GPGPU-Sim PTX:  6 (potential) branch divergence @  PC=0x0d0 (a.1.sm_30.ptx:64) bra.uni BB0_16;
GPGPU-Sim PTX:    immediate post dominator      @  PC=0x300 (a.1.sm_30.ptx:156) mad.lo.s32 %r71, %r25, %r26, %r3;
GPGPU-Sim PTX:  7 (potential) branch divergence @  PC=0x0e8 (a.1.sm_30.ptx:69) bra.uni BB0_20;
GPGPU-Sim PTX:    immediate post dominator      @  PC=0x3f8 (a.1.sm_30.ptx:195) setp.lt.u32%p25, %r18, 4;
GPGPU-Sim PTX:  8 (potential) branch divergence @  PC=0x0f8 (a.1.sm_30.ptx:73) @%p5 bra BB0_8;
GPGPU-Sim PTX:    immediate post dominator      @  PC=0x210 (a.1.sm_30.ptx:118) mad.lo.s32 %r49, %r25, %r26, %r3;
GPGPU-Sim PTX:  9 (potential) branch divergence @  PC=0x100 (a.1.sm_30.ptx:74) bra.uni BB0_9;
GPGPU-Sim PTX:    immediate post dominator      @  PC=0x118 (a.1.sm_30.ptx:81) add.s32 %r28, %r2, %r3;
GPGPU-Sim PTX: 10 (potential) branch divergence @  PC=0x110 (a.1.sm_30.ptx:78) bra.uni BB0_12;
GPGPU-Sim PTX:    immediate post dominator      @  PC=0x210 (a.1.sm_30.ptx:118) mad.lo.s32 %r49, %r25, %r26, %r3;
GPGPU-Sim PTX: 11 (potential) branch divergence @  PC=0x188 (a.1.sm_30.ptx:95) @%p12 bra BB0_10;
GPGPU-Sim PTX:    immediate post dominator      @  PC=0x210 (a.1.sm_30.ptx:118) mad.lo.s32 %r49, %r25, %r26, %r3;
GPGPU-Sim PTX: 12 (potential) branch divergence @  PC=0x190 (a.1.sm_30.ptx:96) bra.uni BB0_11;
GPGPU-Sim PTX:    immediate post dominator      @  PC=0x1a8 (a.1.sm_30.ptx:103) mad.lo.s32 %r38, %r25, %r26, %r3;
GPGPU-Sim PTX: 13 (potential) branch divergence @  PC=0x1a0 (a.1.sm_30.ptx:100) bra.uni BB0_12;
GPGPU-Sim PTX:    immediate post dominator      @  PC=0x210 (a.1.sm_30.ptx:118) mad.lo.s32 %r49, %r25, %r26, %r3;
GPGPU-Sim PTX: 14 (potential) branch divergence @  PC=0x238 (a.1.sm_30.ptx:123) @!%p15 bra BB0_15;
GPGPU-Sim PTX:    immediate post dominator      @  PC=0x2f8 (a.1.sm_30.ptx:153) add.s32 %r146, %r146, 1;
GPGPU-Sim PTX: 15 (potential) branch divergence @  PC=0x240 (a.1.sm_30.ptx:124) bra.uni BB0_13;
GPGPU-Sim PTX:    immediate post dominator      @  PC=0x248 (a.1.sm_30.ptx:127) mov.u32 %r51, %ntid.x;
GPGPU-Sim PTX: 16 (potential) branch divergence @  PC=0x288 (a.1.sm_30.ptx:135) @!%p18 bra BB0_15;
GPGPU-Sim PTX:    immediate post dominator      @  PC=0x2f8 (a.1.sm_30.ptx:153) add.s32 %r146, %r146, 1;
GPGPU-Sim PTX: 17 (potential) branch divergence @  PC=0x290 (a.1.sm_30.ptx:136) bra.uni BB0_14;
GPGPU-Sim PTX:    immediate post dominator      @  PC=0x298 (a.1.sm_30.ptx:139) mad.lo.s32 %r65, %r50, %r16, %r54;
GPGPU-Sim PTX: 18 (potential) branch divergence @  PC=0x328 (a.1.sm_30.ptx:161) @!%p21 bra BB0_19;
GPGPU-Sim PTX:    immediate post dominator      @  PC=0x3e8 (a.1.sm_30.ptx:191) add.s32 %r146, %r146, 1;
GPGPU-Sim PTX: 19 (potential) branch divergence @  PC=0x330 (a.1.sm_30.ptx:162) bra.uni BB0_17;
GPGPU-Sim PTX:    immediate post dominator      @  PC=0x338 (a.1.sm_30.ptx:165) mov.u32 %r73, %ntid.x;
GPGPU-Sim PTX: 20 (potential) branch divergence @  PC=0x378 (a.1.sm_30.ptx:173) @!%p24 bra BB0_19;
GPGPU-Sim PTX:    immediate post dominator      @  PC=0x3e8 (a.1.sm_30.ptx:191) add.s32 %r146, %r146, 1;
GPGPU-Sim PTX: 21 (potential) branch divergence @  PC=0x380 (a.1.sm_30.ptx:174) bra.uni BB0_18;
GPGPU-Sim PTX:    immediate post dominator      @  PC=0x388 (a.1.sm_30.ptx:177) mad.lo.s32 %r87, %r72, %r16, %r76;
GPGPU-Sim PTX: 22 (potential) branch divergence @  PC=0x400 (a.1.sm_30.ptx:196) @%p25 bra BB0_35;
GPGPU-Sim PTX:    immediate post dominator      @  PC=0x630 (a.1.sm_30.ptx:295) add.s32 %r145, %r145, 1;
GPGPU-Sim PTX: 23 (potential) branch divergence @  PC=0x4a8 (a.1.sm_30.ptx:220) @!%p28 bra BB0_25;
GPGPU-Sim PTX:    immediate post dominator      @  PC=0x4f8 (a.1.sm_30.ptx:236) @!%p28 bra BB0_28;
GPGPU-Sim PTX: 24 (potential) branch divergence @  PC=0x4b0 (a.1.sm_30.ptx:221) bra.uni BB0_23;
GPGPU-Sim PTX:    immediate post dominator      @  PC=0x4b8 (a.1.sm_30.ptx:224) setp.gt.s32%p29, %r149, -1;
GPGPU-Sim PTX: 25 (potential) branch divergence @  PC=0x4d0 (a.1.sm_30.ptx:227) @!%p31 bra BB0_25;
GPGPU-Sim PTX:    immediate post dominator      @  PC=0x4f8 (a.1.sm_30.ptx:236) @!%p28 bra BB0_28;
GPGPU-Sim PTX: 26 (potential) branch divergence @  PC=0x4d8 (a.1.sm_30.ptx:228) bra.uni BB0_24;
GPGPU-Sim PTX:    immediate post dominator      @  PC=0x4e0 (a.1.sm_30.ptx:231) ld.global.f64 %fd31, [%rd34];
GPGPU-Sim PTX: 27 (potential) branch divergence @  PC=0x4f8 (a.1.sm_30.ptx:236) @!%p28 bra BB0_28;
GPGPU-Sim PTX:    immediate post dominator      @  PC=0x550 (a.1.sm_30.ptx:253) @!%p28 bra BB0_31;
GPGPU-Sim PTX: 28 (potential) branch divergence @  PC=0x500 (a.1.sm_30.ptx:237) bra.uni BB0_26;
GPGPU-Sim PTX:    immediate post dominator      @  PC=0x508 (a.1.sm_30.ptx:240) add.s32 %r112, %r149, -1;
GPGPU-Sim PTX: 29 (potential) branch divergence @  PC=0x528 (a.1.sm_30.ptx:244) @!%p37 bra BB0_28;
GPGPU-Sim PTX:    immediate post dominator      @  PC=0x550 (a.1.sm_30.ptx:253) @!%p28 bra BB0_31;
GPGPU-Sim PTX: 30 (potential) branch divergence @  PC=0x530 (a.1.sm_30.ptx:245) bra.uni BB0_27;
GPGPU-Sim PTX:    immediate post dominator      @  PC=0x538 (a.1.sm_30.ptx:248) ld.const.f64 %fd33, [%rd35+8];
GPGPU-Sim PTX: 31 (potential) branch divergence @  PC=0x550 (a.1.sm_30.ptx:253) @!%p28 bra BB0_31;
GPGPU-Sim PTX:    immediate post dominator      @  PC=0x5a8 (a.1.sm_30.ptx:270) @!%p28 bra BB0_34;
GPGPU-Sim PTX: 32 (potential) branch divergence @  PC=0x558 (a.1.sm_30.ptx:254) bra.uni BB0_29;
GPGPU-Sim PTX:    immediate post dominator      @  PC=0x560 (a.1.sm_30.ptx:257) add.s32 %r118, %r149, -2;
GPGPU-Sim PTX: 33 (potential) branch divergence @  PC=0x580 (a.1.sm_30.ptx:261) @!%p43 bra BB0_31;
GPGPU-Sim PTX:    immediate post dominator      @  PC=0x5a8 (a.1.sm_30.ptx:270) @!%p28 bra BB0_34;
GPGPU-Sim PTX: 34 (potential) branch divergence @  PC=0x588 (a.1.sm_30.ptx:262) bra.uni BB0_30;
GPGPU-Sim PTX:    immediate post dominator      @  PC=0x590 (a.1.sm_30.ptx:265) ld.const.f64 %fd35, [%rd35+16];
GPGPU-Sim PTX: 35 (potential) branch divergence @  PC=0x5a8 (a.1.sm_30.ptx:270) @!%p28 bra BB0_34;
GPGPU-Sim PTX:    immediate post dominator      @  PC=0x600 (a.1.sm_30.ptx:287) add.s64 %rd35, %rd35, 32;
GPGPU-Sim PTX: 36 (potential) branch divergence @  PC=0x5b0 (a.1.sm_30.ptx:271) bra.uni BB0_32;
GPGPU-Sim PTX:    immediate post dominator      @  PC=0x5b8 (a.1.sm_30.ptx:274) add.s32 %r124, %r149, -3;
GPGPU-Sim PTX: 37 (potential) branch divergence @  PC=0x5d8 (a.1.sm_30.ptx:278) @!%p49 bra BB0_34;
GPGPU-Sim PTX:    immediate post dominator      @  PC=0x600 (a.1.sm_30.ptx:287) add.s64 %rd35, %rd35, 32;
GPGPU-Sim PTX: 38 (potential) branch divergence @  PC=0x5e0 (a.1.sm_30.ptx:279) bra.uni BB0_33;
GPGPU-Sim PTX:    immediate post dominator      @  PC=0x5e8 (a.1.sm_30.ptx:282) ld.const.f64 %fd37, [%rd35+24];
GPGPU-Sim PTX: 39 (potential) branch divergence @  PC=0x628 (a.1.sm_30.ptx:292) @%p50 bra BB0_22;
GPGPU-Sim PTX:    immediate post dominator      @  PC=0x630 (a.1.sm_30.ptx:295) add.s32 %r145, %r145, 1;
GPGPU-Sim PTX: 40 (potential) branch divergence @  PC=0x640 (a.1.sm_30.ptx:297) @%p51 bra BB0_2;
GPGPU-Sim PTX:    immediate post dominator      @  PC=0x648 (a.1.sm_30.ptx:300) add.s32 %r125, %r17, %r19;
GPGPU-Sim PTX: 41 (potential) branch divergence @  PC=0x6c0 (a.1.sm_30.ptx:315) @!%p54 bra BB0_38;
GPGPU-Sim PTX:    immediate post dominator      @  PC=0x6f8 (a.1.sm_30.ptx:326) ret;
GPGPU-Sim PTX: 42 (potential) branch divergence @  PC=0x6c8 (a.1.sm_30.ptx:316) bra.uni BB0_37;
GPGPU-Sim PTX:    immediate post dominator      @  PC=0x6d0 (a.1.sm_30.ptx:319) mad.lo.s32 %r144, %r130, %r15, %r135;
GPGPU-Sim PTX: ... end of reconvergence points for _Z14convolution_2dPdS_iiii
GPGPU-Sim PTX: ... done pre-decoding instructions for '_Z14convolution_2dPdS_iiii'.
GPGPU-Sim PTX: pushing kernel '_Z14convolution_2dPdS_iiii' to stream 0, gridDim= (13,13,1) blockDim = (8,8,1) 
GPGPU-Sim: Performing Functional Simulation, executing kernel _Z14convolution_2dPdS_iiii...
GPGPU-Sim PTX: PDOM analysis already done for _Z14convolution_2dPdS_iiii 
padded cta size is 64 and 24 and 24GPGPU-Sim uArch: CTA/core = 32, limited by: threads cta_limit
Max CTA : 32
Destroy streams for kernel 1: size 0
GPGPU-Sim: Done functional simulation (6670384 instructions simulated).


gpgpu_simulation_time = 0 days, 0 hrs, 0 min, 1 sec (1 sec)
gpgpu_simulation_rate = 6670384 (inst/sec)
0.240 0.268 0.221 0.514 0.508 0.527 0.624 0.568 0.393 0.435 0.401 0.526 0.624 0.515 0.609 0.365 0.420 0.517 0.546 0.661 0.605 0.680 0.672 0.435 0.650 0.681 0.445 0.550 0.554 0.347 0.306 0.275 0.190 0.226 0.352 0.410 0.632 0.671 0.751 0.704 0.639 0.578 0.381 0.608 0.493 0.619 0.813 0.636 0.632 0.644 0.646 0.624 0.759 0.759 0.672 0.776 0.610 0.505 0.473 0.457 0.518 0.712 0.802 0.666 0.733 0.522 0.388 0.588 0.528 0.493 0.620 0.580 0.489 0.430 0.504 0.559 0.609 0.592 0.647 0.749 0.532 0.670 0.699 0.478 0.561 0.473 0.524 0.700 0.530 0.704 0.608 0.520 0.530 0.537 0.619 0.371 0.629 0.618 0.481 0.690 0.523 0.242 0.229 0.047 
0.128 0.435 0.697 0.868 1.286 1.178 1.525 1.730 1.616 1.241 1.095 1.146 1.215 1.614 1.195 1.506 0.964 1.285 1.341 1.457 1.785 1.666 1.623 1.761 1.112 1.373 1.427 0.953 1.181 1.369 1.071 1.245 1.239 1.066 1.072 1.259 1.187 1.510 1.723 1.636 1.646 1.452 1.490 1.112 1.647 1.431 1.526 1.839 1.583 1.582 1.550 1.367 1.315 1.622 1.721 1.541 1.843 1.476 1.263 1.031 0.874 1.095 1.513 1.974 1.438 1.449 1.078 0.771 1.032 0.924 0.946 1.343 1.257 1.293 1.282 1.333 1.436 1.246 1.475 1.338 1.578 1.314 1.705 1.795 1.289 1.453 1.184 1.045 1.343 1.226 1.678 1.633 1.206 1.522 0.982 1.528 0.942 1.232 1.313 1.095 1.288 1.090 0.426 0.434 
0.584 0.561 1.379 2.240 2.629 2.402 2.776 3.650 2.955 3.071 2.129 2.360 2.154 3.011 2.617 2.791 2.173 2.183 2.322 2.349 3.049 3.556 3.080 3.098 3.159 3.313 2.743 2.802 2.722 2.368 2.177 2.517 2.013 2.056 2.282 2.617 2.754 2.845 3.377 3.003 3.563 2.665 2.789 2.359 2.607 3.148 3.163 3.420 2.996 3.707 2.880 2.751 3.075 2.936 3.299 3.165 3.205 3.171 2.902 2.541 1.753 2.259 2.813 3.443 3.671 2.678 2.460 2.313 1.950 1.835 2.355 2.563 2.639 2.503 2.733 2.742 2.937 2.852 3.205 3.145 2.643 2.910 3.624 3.120 3.104 2.684 2.850 2.375 2.508 2.544 2.941 3.273 2.350 2.989 2.347 2.507 2.618 2.942 2.383 3.163 2.690 1.972 1.353 0.804 
0.865 0.752 1.582 2.539 3.488 3.798 4.003 4.375 3.281 4.620 3.816 3.938 2.568 3.518 3.678 3.355 3.575 2.846 3.852 3.717 3.423 4.015 3.941 4.229 4.358 3.449 3.787 3.705 2.629 3.362 3.303 3.230 3.420 3.679 3.759 4.159 3.954 3.522 4.395 3.594 3.826 3.409 3.699 3.116 3.520 4.765 3.936 4.245 3.586 3.848 4.071 3.693 3.827 3.333 3.542 3.942 4.159 4.259 3.662 3.437 3.062 3.115 3.658 3.520 4.467 3.229 3.388 2.558 2.672 2.389 2.802 2.712 2.724 3.494 3.848 3.732 3.696 3.930 4.025 3.999 3.694 3.596 4.362 4.331 4.246 3.382 4.200 2.993 2.837 2.756 2.923 3.921 3.805 3.830 2.829 2.948 3.136 3.402 3.610 3.876 2.614 2.164 1.595 0.690 
1.034 1.226 2.181 3.600 4.144 4.782 4.796 5.492 4.674 4.869 4.436 4.165 4.112 4.014 4.722 3.802 4.612 4.397 4.489 3.902 4.070 4.165 5.351 5.056 4.773 5.143 5.077 4.415 5.266 4.714 4.601 4.818 4.320 4.072 4.370 4.217 4.039 4.777 5.438 4.242 4.232 4.245 4.496 4.629 4.547 4.389 4.445 4.937 4.895 4.962 4.312 4.124 4.664 4.375 4.249 4.967 5.659 4.878 4.649 3.822 4.296 3.469 5.525 4.647 4.944 4.054 4.085 3.107 4.003 3.290 3.753 3.900 4.564 5.255 4.460 5.416 4.375 4.406 5.327 5.473 5.373 4.576 5.979 5.012 5.197 4.354 4.071 3.517 3.912 3.342 5.010 4.566 4.718 3.967 4.060 3.780 3.392 4.717 5.132 4.992 4.594 3.168 1.777 1.084 
0.996 1.086 2.583 3.301 4.007 4.353 4.832 5.733 4.316 5.337 4.768 4.541 4.891 4.083 5.160 4.344 4.415 3.969 5.017 4.434 5.199 3.851 5.323 4.724 5.460 4.545 4.765 4.714 4.085 4.020 4.367 4.497 4.385 5.165 5.160 5.221 4.362 4.989 4.586 4.010 4.536 4.381 5.176 4.660 4.290 4.869 4.638 4.827 4.706 4.455 3.659 4.030 3.569 3.574 4.195 4.315 5.013 4.547 5.496 4.341 5.127 4.115 4.781 4.442 5.208 4.129 4.250 2.980 3.267 3.783 3.579 3.940 3.968 4.311 4.250 4.727 4.615 4.669 5.532 5.449 5.658 5.415 5.419 4.861 4.783 3.561 3.834 3.249 3.813 2.888 4.062 4.039 4.567 4.803 4.260 4.050 4.523 3.974 4.703 4.873 3.188 2.619 1.905 0.747 
0.752 1.110 1.929 3.552 4.499 4.554 5.039 5.128 4.394 4.913 5.047 5.113 4.912 4.685 4.895 4.109 4.130 3.507 5.040 3.724 4.720 3.699 4.515 4.202 4.931 4.253 4.813 4.527 4.651 5.084 4.769 5.222 5.065 4.731 4.487 4.981 3.818 3.881 4.960 5.270 4.038 4.835 4.403 4.316 4.357 4.480 4.125 4.857 4.034 4.773 4.063 3.924 3.984 3.918 4.151 3.772 4.519 4.653 4.884 4.262 4.689 4.722 4.701 4.936 4.490 4.175 3.854 3.435 3.720 3.540 3.963 4.002 4.305 4.711 4.627 4.703 6.049 5.412 5.784 6.205 5.492 5.273 5.487 5.090 4.340 4.091 2.790 2.887 3.096 3.223 4.178 4.520 4.797 4.160 4.902 4.595 4.476 4.399 4.611 4.520 3.907 3.381 2.310 1.238 
0.938 1.106 2.113 2.913 3.741 4.430 4.370 5.542 5.092 5.254 5.709 5.345 5.172 5.397 5.043 4.303 4.717 3.509 5.158 4.368 5.045 4.114 4.295 4.035 3.890 3.933 3.464 3.704 3.814 3.848 5.179 5.214 4.520 5.156 5.016 5.080 4.178 4.725 4.532 4.555 4.131 4.861 4.650 5.415 3.907 4.522 3.836 4.342 4.367 4.607 4.087 4.705 3.451 3.591 3.522 3.918 4.386 4.572 4.365 4.713 5.126 5.723 5.380 5.244 4.721 4.590 3.524 3.494 3.399 3.712 3.561 3.766 4.437 3.903 4.682 5.175 4.815 5.481 5.680 5.162 4.778 5.603 4.896 5.355 4.905 3.710 3.362 2.903 2.999 3.369 3.430 4.200 4.759 4.479 4.897 3.975 4.622 4.117 4.295 4.162 2.743 2.620 1.790 1.236 
0.917 1.290 2.392 3.154 4.279 3.395 4.260 4.450 4.713 5.513 4.902 5.379 5.166 4.342 4.856 4.420 4.155 4.364 4.609 4.333 3.924 3.182 3.432 2.855 4.157 4.050 4.227 4.125 4.010 4.529 4.695 5.853 5.676 5.750 5.493 5.222 4.674 5.176 4.111 5.205 4.800 4.104 4.303 4.672 3.768 4.303 4.032 4.457 3.447 4.287 4.062 4.257 3.959 4.877 4.050 4.266 3.867 4.365 4.719 4.968 5.322 5.207 5.395 5.140 4.663 3.978 3.418 3.168 3.596 3.702 3.285 3.543 4.017 4.399 4.567 5.782 5.450 6.115 5.658 5.767 4.715 4.668 4.742 4.574 4.299 4.021 3.647 3.331 4.044 3.224 4.668 4.266 4.271 3.907 4.350 4.519 4.115 3.915 4.071 4.925 3.659 3.659 2.022 0.931 
0.906 1.099 2.154 2.905 4.105 3.932 4.300 4.799 5.210 5.460 5.812 5.352 5.188 4.828 4.523 3.935 3.701 3.863 4.686 4.773 4.550 3.877 3.242 3.397 4.070 3.932 4.039 4.159 3.994 4.403 4.503 5.029 4.761 5.440 5.224 5.212 4.885 4.928 5.400 4.786 4.077 4.357 3.798 4.679 5.038 4.992 5.223 4.793 3.833 3.911 3.653 4.570 4.261 4.535 4.617 3.782 4.263 4.049 4.315 4.973 6.569 5.462 5.281 5.264 4.940 5.063 4.094 4.243 4.211 3.446 3.054 3.597 3.485 4.383 4.888 5.869 5.177 4.824 4.997 4.821 4.784 5.250 4.973 4.138 5.148 4.194 3.700 3.864 4.052 3.501 3.638 3.229 4.027 4.128 3.939 4.213 4.278 4.747 4.486 4.540 3.147 2.252 2.163 1.590 
1.017 0.912 1.933 2.450 3.631 3.726 4.698 4.962 4.795 4.716 5.360 4.842 5.115 4.452 3.762 3.859 3.597 3.703 4.105 4.195 4.970 4.237 4.194 3.801 3.959 4.273 4.127 4.384 4.145 4.492 4.675 5.347 5.721 5.868 5.947 4.992 4.759 3.809 4.271 4.084 4.494 3.831 3.717 4.484 4.574 5.245 5.046 5.223 4.470 3.849 4.217 4.234 4.655 4.906 5.445 4.823 4.345 4.668 5.069 4.898 5.383 5.364 4.773 5.448 4.857 3.841 4.344 3.948 3.479 3.980 3.705 4.375 4.406 4.862 5.270 5.803 5.371 5.054 4.570 4.495 4.351 4.583 4.261 5.487 5.454 4.584 4.363 3.257 4.026 3.149 2.674 3.430 3.858 4.348 4.278 4.643 4.056 3.843 4.754 4.339 3.855 3.565 2.481 1.061 
0.933 1.040 2.100 2.693 3.908 3.494 4.273 4.287 5.497 5.755 6.040 5.472 4.751 4.324 4.028 3.735 4.785 3.792 4.263 4.875 5.121 5.372 5.303 4.178 5.123 4.224 5.066 4.335 4.303 4.321 5.259 5.880 5.562 5.229 6.111 4.974 4.912 4.246 3.811 3.762 3.933 4.008 4.304 4.788 5.251 5.735 5.040 4.839 4.341 3.759 3.911 4.394 5.928 5.469 5.062 4.237 4.678 4.826 5.051 5.342 5.113 5.640 4.589 5.045 4.784 5.230 4.300 4.266 4.144 4.277 4.643 4.730 4.778 4.173 4.550 4.865 4.719 4.724 5.039 4.514 4.672 5.412 4.965 4.405 5.054 4.746 3.909 4.252 3.975 3.362 3.480 3.619 3.632 3.829 3.899 3.671 4.631 3.814 4.169 4.823 4.256 2.904 2.176 0.727 
0.828 1.158 2.306 2.835 4.277 3.015 4.797 5.021 5.453 5.361 5.112 5.084 4.441 3.963 4.053 3.998 4.235 4.550 5.212 5.378 5.848 5.524 5.668 4.768 4.708 4.427 5.047 4.572 5.264 4.714 5.145 4.967 5.919 5.604 5.485 4.710 4.597 3.723 3.360 3.645 4.120 4.435 3.877 5.162 5.756 5.512 5.905 4.812 4.764 3.918 3.945 4.041 4.678 4.452 4.765 4.547 4.910 4.229 4.978 5.315 5.175 5.292 5.076 5.050 4.228 5.359 4.271 5.064 4.273 4.516 4.764 4.752 5.262 4.945 5.665 5.353 5.226 4.625 4.781 4.752 5.275 4.721 4.324 3.659 4.539 4.643 3.651 3.555 3.354 3.178 2.999 3.629 3.950 4.240 4.096 4.455 4.142 4.163 4.995 4.284 3.847 2.661 2.455 1.293 
1.135 0.931 2.168 2.945 3.932 3.879 4.290 4.774 5.223 5.235 5.359 5.127 5.044 4.513 4.253 4.488 4.610 5.513 5.256 5.715 6.000 5.697 5.569 5.185 5.157 4.453 4.485 4.763 4.969 4.692 4.579 5.480 5.429 5.385 4.905 4.090 3.687 3.893 3.633 3.474 4.308 4.797 5.023 5.320 5.361 4.890 5.530 4.090 4.875 3.792 4.231 3.668 4.728 4.096 4.811 4.055 4.320 4.636 4.838 4.823 4.351 4.539 3.840 4.692 4.008 5.072 4.534 4.343 4.756 5.484 5.143 4.990 5.328 4.849 5.089 4.574 4.811 4.180 5.083 4.738 5.244 5.332 4.980 4.259 4.056 4.068 2.810 3.248 4.029 3.664 2.797 3.851 3.887 4.153 4.211 4.596 3.893 3.984 4.443 3.298 3.334 2.498 1.638 0.849 
0.935 1.256 1.978 2.578 4.282 3.899 4.297 5.125 5.319 5.285 5.502 5.468 5.107 4.754 4.466 5.278 5.108 4.673 5.346 5.533 5.276 5.604 5.190 5.327 4.269 4.559 4.762 4.824 4.600 5.255 5.529 5.334 5.331 5.310 4.877 3.546 3.511 3.880 4.056 4.009 4.208 4.388 4.215 4.215 5.315 4.706 5.094 4.165 3.994 3.290 3.607 3.318 3.848 4.086 3.925 3.744 4.558 4.495 4.724 4.856 3.807 4.413 4.581 5.331 4.874 5.219 4.224 4.426 4.153 4.696 4.316 5.122 5.155 4.072 4.412 4.603 3.864 4.196 5.214 5.133 5.260 4.843 3.926 3.561 3.923 4.076 3.477 3.388 3.249 3.243 3.178 3.773 3.914 3.906 3.694 3.901 5.044 4.809 4.351 3.968 2.686 2.002 1.785 0.623 
0.856 1.474 2.138 3.464 3.996 3.740 4.165 4.845 5.395 5.085 4.698 4.932 5.253 4.857 5.704 5.437 5.694 5.806 5.672 5.594 4.151 4.557 4.464 4.777 4.297 4.561 3.500 3.978 4.356 4.474 4.585 4.515 4.928 5.143 5.156 3.914 4.016 3.898 4.213 4.848 4.843 5.135 5.043 5.182 5.528 4.473 4.617 3.293 3.214 2.982 2.405 2.951 3.262 3.927 4.467 4.724 3.655 3.914 3.786 3.845 4.248 4.687 5.151 5.453 4.911 5.722 4.696 4.413 3.919 4.738 3.937 4.317 4.133 4.551 3.960 3.980 3.903 4.104 4.432 5.107 4.192 4.814 4.621 2.846 3.604 3.999 3.692 3.607 4.691 3.774 4.184 4.548 4.155 4.199 4.587 3.634 3.869 4.143 4.195 3.405 2.982 2.609 1.857 1.221 
1.138 1.192 2.741 3.062 4.832 4.581 4.409 4.917 5.079 4.804 5.418 5.070 4.917 4.628 4.859 5.156 5.314 4.942 4.887 5.187 4.283 3.588 3.685 4.504 3.900 3.998 3.875 3.853 4.059 4.519 5.604 5.372 4.636 4.668 5.268 4.461 4.416 4.774 4.534 4.406 5.042 4.952 4.589 5.031 4.012 4.387 3.485 3.435 3.440 3.309 3.409 3.425 3.814 3.925 4.123 4.289 3.626 4.658 4.745 4.857 4.391 4.767 4.506 4.099 4.869 5.445 4.625 4.555 3.534 4.060 3.650 4.197 4.137 4.055 3.556 4.532 3.525 3.923 4.310 5.194 5.282 5.008 4.261 3.261 3.884 3.691 4.306 3.633 4.345 3.688 4.061 3.666 4.655 4.746 4.637 4.388 3.588 3.946 3.882 3.728 3.405 3.344 1.847 1.336 
1.000 1.502 2.893 3.396 5.576 4.040 5.265 4.068 5.346 4.583 4.529 4.583 5.033 4.814 5.018 5.555 5.119 4.621 5.393 4.722 3.493 3.292 3.573 3.972 4.487 4.283 4.495 4.208 4.544 4.857 4.847 4.629 3.999 4.502 4.724 3.926 4.629 5.061 4.584 4.631 5.278 4.718 4.899 4.901 4.795 4.171 3.826 3.906 3.235 3.609 3.726 4.169 4.069 4.347 4.154 5.010 5.478 5.576 5.790 5.838 4.320 4.258 4.247 4.932 4.899 5.374 4.773 4.270 4.075 4.274 3.985 4.235 3.969 4.007 4.016 3.051 2.862 4.479 4.167 5.019 4.624 4.877 4.745 3.871 4.608 4.458 4.537 4.378 4.596 4.200 4.228 5.294 4.894 4.343 4.978 3.809 3.538 4.261 4.134 4.713 2.945 3.811 2.672 1.624 
1.046 1.154 2.910 3.320 5.084 4.200 5.061 4.043 4.546 4.718 4.719 4.441 3.903 4.607 4.949 5.043 5.126 4.572 4.465 4.101 3.966 4.012 4.314 4.210 3.858 3.685 4.391 4.863 4.731 4.310 4.110 4.483 4.146 4.922 5.366 5.326 4.641 4.070 4.661 3.923 4.511 4.125 3.591 3.823 4.203 3.706 3.985 3.828 4.217 4.384 4.150 4.590 4.525 5.347 5.645 5.722 5.866 5.913 5.496 5.257 4.608 4.546 4.585 4.724 4.193 5.000 4.461 4.326 4.279 3.953 4.440 4.219 4.714 4.101 4.184 4.299 4.136 4.538 3.966 4.601 4.004 4.733 4.115 3.835 4.830 3.899 3.967 4.212 4.429 4.363 4.323 4.675 3.998 4.234 4.471 4.085 3.819 3.810 3.777 4.575 3.804 3.946 2.506 1.340 
0.946 1.130 2.342 2.898 4.348 4.908 4.861 4.607 3.956 4.425 4.440 4.231 4.327 4.890 4.079 4.695 4.559 4.060 3.775 4.596 5.382 4.758 5.644 4.616 4.158 4.843 4.796 5.184 4.569 4.946 4.273 4.209 4.256 4.329 4.793 4.760 4.200 3.828 4.141 3.927 4.762 3.492 4.528 3.313 3.847 4.127 3.961 4.516 5.083 5.393 4.713 4.734 4.952 4.455 5.057 4.980 5.340 6.186 5.691 5.176 4.913 4.891 4.460 4.928 5.472 5.240 5.541 4.822 4.418 3.962 4.525 3.972 3.810 4.377 4.082 4.604 3.685 4.709 3.868 4.626 4.579 4.245 4.632 4.663 4.859 5.080 4.191 4.250 4.742 4.034 3.512 4.241 5.076 3.929 5.051 4.925 3.844 3.771 4.005 3.924 3.460 3.166 2.213 1.153 
0.521 1.642 1.953 3.544 3.592 4.458 4.062 4.120 3.682 4.059 4.125 4.661 4.323 3.907 4.710 4.300 4.761 4.663 5.005 4.757 4.249 4.590 4.732 5.462 5.093 4.744 4.346 4.905 3.972 4.125 4.178 4.590 4.472 4.505 3.596 3.709 4.018 3.377 3.703 4.342 3.603 3.178 3.806 3.476 4.186 4.423 5.039 4.727 5.280 5.450 5.340 5.403 5.214 4.114 4.521 4.444 5.744 5.204 5.819 5.123 4.370 4.950 4.501 4.861 5.191 5.850 4.632 4.696 4.199 3.694 3.482 3.510 3.660 3.979 3.908 3.308 3.875 4.320 3.558 4.337 4.694 4.562 4.155 4.273 4.867 3.986 3.781 3.335 3.871 3.218 3.972 4.595 5.130 4.554 4.707 4.214 3.955 3.064 4.082 3.476 3.711 3.621 2.158 1.474 
0.248 1.271 2.171 3.479 4.068 4.736 3.818 3.929 3.845 4.134 3.924 3.340 4.668 4.452 4.547 4.897 5.181 4.539 3.874 3.588 4.698 4.911 4.527 5.226 3.818 4.514 4.542 4.874 5.066 5.151 4.998 5.222 3.994 4.227 3.870 4.223 3.466 3.792 3.689 3.464 4.091 3.477 4.287 4.152 2.966 3.716 4.297 4.972 5.032 5.553 5.196 4.240 3.990 4.009 3.984 4.148 4.526 4.321 5.521 4.662 5.440 5.429 5.287 5.224 5.183 6.037 4.310 4.857 3.813 3.549 2.965 3.446 3.132 3.705 3.945 3.414 4.246 3.418 3.781 4.114 5.065 4.598 4.875 4.933 4.854 5.165 4.058 3.746 4.474 3.803 3.655 4.255 5.137 3.877 4.090 3.873 4.281 4.151 4.121 3.939 3.004 2.829 1.872 0.773 
0.624 1.452 2.310 3.463 4.593 4.590 4.103 3.787 4.208 3.667 3.837 3.866 4.274 4.181 4.812 4.565 5.281 4.714 4.208 4.179 4.138 4.300 4.606 4.816 4.745 4.288 4.242 4.314 4.516 4.900 4.198 4.494 3.427 4.102 4.217 4.444 3.729 3.527 3.827 3.893 3.812 4.274 4.183 4.055 3.855 3.643 4.878 5.293 5.288 5.250 3.982 4.322 3.498 3.496 3.371 3.719 4.516 4.946 5.226 4.851 4.471 4.651 4.877 5.379 5.267 5.181 3.812 4.022 3.476 3.498 2.942 3.095 3.241 2.685 3.147 3.056 3.929 4.332 4.814 4.192 5.182 4.912 4.513 4.429 4.337 4.095 3.715 3.482 3.843 3.976 4.399 5.022 5.121 5.101 4.674 3.655 3.655 3.788 3.718 3.892 2.950 2.939 2.483 0.601 
0.759 1.627 2.689 3.232 4.468 4.598 4.089 4.174 4.169 4.289 3.556 4.066 4.575 4.690 5.365 4.423 4.762 3.834 3.890 3.337 3.979 4.426 4.835 4.844 4.835 3.422 4.848 4.979 4.508 4.955 4.748 4.158 3.740 4.247 4.710 5.032 4.535 4.083 4.370 4.371 3.614 3.606 4.180 4.399 4.360 3.841 3.922 4.128 4.449 4.815 4.395 4.366 3.315 3.403 3.360 3.747 4.719 5.170 4.889 4.791 4.119 5.058 4.031 4.177 4.359 5.477 4.127 4.370 4.311 4.237 3.637 3.896 3.450 3.166 3.291 2.935 4.658 5.098 5.512 5.651 5.349 4.516 4.312 4.821 4.975 4.966 4.516 4.128 4.193 4.342 4.409 4.516 4.899 4.829 4.569 4.155 3.414 3.536 3.760 2.790 3.832 2.823 2.184 1.118 
0.905 1.692 2.961 4.184 5.694 5.094 4.058 3.704 3.476 4.241 4.822 4.485 4.677 4.145 5.109 4.365 4.642 3.958 4.229 3.665 5.221 4.527 5.365 4.774 4.669 4.024 4.177 4.845 4.450 3.995 4.274 4.324 4.063 3.812 4.689 4.666 4.419 4.026 4.620 4.660 4.545 3.742 4.061 3.331 3.604 3.990 4.545 4.686 4.770 5.188 4.510 4.498 3.515 3.896 3.560 4.427 4.344 5.093 4.298 4.396 3.830 3.822 3.849 4.660 4.334 4.448 3.932 4.541 4.565 4.742 4.458 4.640 3.817 3.760 3.455 4.600 4.767 5.243 5.177 4.617 4.855 3.668 4.445 3.673 4.394 3.972 3.998 3.885 3.431 4.110 4.383 5.262 5.347 4.747 4.716 3.949 3.282 3.622 4.764 3.348 2.999 2.369 2.320 1.293 
1.046 1.770 2.693 3.965 4.553 5.323 4.375 4.109 4.556 3.635 4.915 4.717 4.530 4.506 4.625 4.130 5.104 4.224 4.863 3.962 5.847 5.095 5.324 5.329 4.899 4.905 4.535 4.546 4.325 3.878 4.203 4.202 3.728 4.098 4.589 5.275 5.219 3.927 4.207 3.852 4.849 3.535 4.231 3.808 3.946 4.242 4.400 4.975 3.988 4.569 4.153 4.399 3.891 4.475 4.212 4.780 3.875 5.241 4.579 4.004 3.017 4.210 3.626 3.837 5.007 5.065 5.407 5.180 5.490 5.124 5.097 4.811 4.150 4.951 4.807 4.629 4.950 5.434 5.318 4.704 5.377 4.690 4.416 4.132 3.088 3.126 3.078 3.210 4.380 4.140 4.770 4.616 4.454 4.220 3.877 3.978 4.350 3.956 4.337 4.055 2.920 3.112 2.255 0.976 
0.784 2.071 2.734 4.062 5.212 4.488 5.419 4.859 5.044 4.765 4.719 4.673 5.062 4.688 4.462 4.428 4.644 4.121 4.560 4.749 5.424 5.358 5.340 5.255 5.264 4.728 5.135 5.010 4.809 4.345 3.161 3.867 4.251 3.963 4.266 4.833 4.670 3.668 4.027 3.677 3.727 3.807 4.052 4.279 4.469 4.612 4.669 5.324 4.757 5.603 5.150 4.361 3.550 3.787 3.169 4.159 4.050 4.196 3.168 4.180 3.651 3.700 4.538 4.524 5.571 4.949 4.961 4.732 5.244 4.437 5.074 5.593 5.385 5.214 4.788 4.683 4.735 4.329 4.907 5.250 4.191 3.848 3.165 3.648 3.641 3.475 3.714 3.778 3.988 3.758 4.175 4.380 3.776 4.217 4.581 4.728 4.684 4.099 4.239 4.137 3.746 3.407 2.384 0.968 
0.738 1.453 2.677 3.924 5.157 4.603 5.145 4.463 4.368 5.080 4.872 4.448 4.812 5.099 4.205 4.467 4.543 4.723 4.958 4.160 4.548 5.114 5.591 5.630 5.696 5.101 4.533 5.042 4.783 4.679 4.317 3.696 3.079 3.220 3.695 4.060 4.026 3.438 4.058 3.517 4.022 3.926 4.024 4.715 4.334 5.305 4.728 5.494 5.677 4.480 4.617 4.539 3.616 3.966 3.542 4.802 3.917 4.419 3.960 3.992 3.965 4.417 5.348 4.793 4.996 4.472 5.148 4.752 5.761 4.953 5.937 5.796 5.157 4.584 4.862 5.384 4.441 5.038 4.955 4.773 4.036 4.453 4.663 3.914 4.050 3.182 3.742 3.666 4.316 4.218 3.499 4.353 3.875 4.439 4.119 4.378 4.073 5.064 4.422 4.100 4.036 2.378 1.937 0.957 
1.182 1.203 3.178 3.674 5.207 5.772 4.654 5.207 4.421 5.261 5.134 4.984 5.103 4.539 4.321 3.966 4.795 5.091 4.262 4.175 4.673 4.185 4.751 4.962 5.298 5.078 4.434 4.737 4.798 3.821 3.107 3.195 3.377 2.923 3.574 3.784 4.281 2.897 3.427 4.318 4.221 4.215 4.159 4.229 4.345 4.013 5.190 4.641 5.134 4.508 4.599 4.262 2.933 3.283 2.768 3.334 3.975 4.833 4.230 4.395 4.930 4.918 4.718 5.603 5.319 4.708 4.815 4.958 5.425 5.327 5.466 5.584 5.665 5.552 5.411 5.393 4.613 4.736 4.909 5.082 5.060 4.559 4.366 4.271 5.341 3.825 3.635 4.163 4.033 4.111 3.894 4.297 3.611 4.072 3.886 4.514 4.786 4.324 5.488 4.000 3.523 2.591 2.137 0.779 
1.014 1.277 2.679 3.771 4.340 4.957 5.183 4.657 5.006 5.023 4.616 4.349 4.685 4.761 4.749 4.576 4.495 4.027 4.358 3.826 4.189 4.759 4.569 4.338 4.820 4.600 5.146 4.170 3.885 3.658 2.939 3.306 3.637 3.092 4.234 4.015 4.014 3.314 3.243 3.048 3.343 3.343 3.742 4.374 4.848 4.486 5.615 5.196 4.797 4.273 3.452 3.041 3.216 3.256 3.390 4.657 4.614 5.159 4.945 5.391 4.762 4.275 4.247 4.511 5.224 4.845 4.359 4.741 5.166 5.018 5.066 5.551 4.737 4.074 4.409 5.200 5.184 5.237 5.685 5.399 5.121 5.400 5.376 5.617 5.268 4.968 4.161 4.199 3.770 3.340 3.366 3.947 3.676 3.805 3.647 3.462 4.709 4.344 5.633 4.283 3.870 2.613 1.520 0.689 
0.788 1.527 2.183 3.820 4.776 4.592 4.981 3.643 4.127 4.407 4.958 4.307 5.904 4.855 4.163 4.265 4.341 5.340 5.190 5.143 4.798 4.080 4.236 3.872 4.690 3.368 3.526 4.431 3.779 4.212 3.850 3.082 3.719 3.112 3.989 3.922 3.889 3.645 3.716 3.819 4.165 3.143 3.545 3.805 4.096 4.520 4.359 5.124 4.524 4.063 4.390 3.748 3.536 3.814 4.381 4.415 4.783 5.235 4.917 5.104 4.978 4.010 4.254 4.239 5.109 4.499 5.041 5.543 4.835 5.316 4.849 5.233 4.624 4.417 4.304 4.715 5.012 5.243 5.173 4.837 4.936 5.230 4.948 4.722 4.830 4.543 4.227 4.099 4.649 4.312 4.398 3.828 4.490 3.817 4.105 3.850 4.430 4.495 5.027 4.958 3.437 2.344 1.670 0.875 
0.453 1.210 2.313 2.711 4.245 3.890 4.387 3.011 3.482 3.492 4.359 4.235 4.926 5.406 4.919 4.895 4.645 5.339 4.506 4.873 4.291 4.283 4.499 3.961 4.039 3.760 3.401 3.462 4.091 3.574 4.184 4.690 4.240 3.890 3.820 4.231 4.185 3.378 4.197 3.679 3.462 3.567 3.049 3.911 3.634 4.392 4.430 5.093 4.577 4.438 4.788 4.050 4.030 4.126 4.908 5.646 5.984 5.911 5.674 4.778 5.361 4.508 4.422 3.437 3.987 4.486 4.450 4.610 4.986 5.147 4.037 4.526 3.661 3.621 4.028 4.856 5.373 5.308 5.512 4.315 4.984 4.262 4.839 5.880 5.303 5.145 4.748 3.282 3.026 3.553 4.106 4.281 4.654 4.911 4.026 4.591 4.681 4.859 5.175 4.647 3.715 2.271 1.359 0.506 
0.706 1.128 2.590 3.112 4.499 3.676 3.996 2.513 2.890 2.967 3.881 3.687 4.233 4.911 4.509 4.979 4.405 5.634 5.186 5.043 5.038 4.017 4.230 4.694 4.123 4.080 4.332 3.448 4.657 3.988 4.120 4.925 4.989 4.047 4.111 4.522 3.694 3.230 3.435 3.789 4.156 4.311 3.611 4.234 3.931 3.750 4.155 4.377 4.352 3.846 4.728 5.413 5.566 5.989 5.519 5.279 5.549 5.679 5.863 5.845 5.084 3.923 3.738 3.696 4.147 4.053 4.011 4.991 5.023 4.555 4.325 3.824 4.059 3.482 3.976 3.336 4.916 4.213 4.688 3.841 3.862 4.359 4.015 4.457 4.551 4.273 4.458 4.441 4.158 4.486 5.134 4.914 5.134 5.069 4.721 4.523 4.600 4.457 4.997 4.331 3.684 2.684 1.374 0.707 
1.004 0.841 2.488 2.546 3.297 3.435 3.887 2.818 2.360 2.714 3.780 3.923 4.408 5.058 5.479 4.763 5.279 4.845 4.190 4.650 3.735 4.587 3.960 3.949 3.695 2.942 4.039 3.901 4.485 4.813 4.655 4.908 4.929 4.395 4.417 4.472 4.490 3.930 4.123 4.285 4.338 4.509 4.156 4.149 4.114 3.212 3.991 4.112 5.063 4.604 5.109 5.156 5.021 5.609 5.739 5.923 5.771 6.392 6.187 6.187 5.101 4.304 3.466 3.227 4.226 4.033 4.864 4.883 5.515 5.205 4.833 4.062 4.127 3.396 4.158 3.535 4.105 3.956 4.107 4.303 3.444 4.138 4.145 4.669 4.585 4.715 5.464 4.396 4.293 4.342 5.060 4.443 5.209 5.034 5.740 4.886 4.656 4.223 4.437 4.509 3.608 3.104 1.387 0.748 
0.741 1.299 2.480 3.334 4.496 3.287 3.433 3.200 2.858 2.282 3.399 3.127 4.760 4.383 4.842 4.732 4.276 3.821 3.970 4.454 3.807 4.159 3.846 4.276 3.632 3.729 4.267 4.071 4.452 4.445 5.128 5.038 5.244 4.662 4.628 4.637 4.281 4.182 4.058 3.832 4.805 4.889 4.904 4.690 4.431 3.376 3.925 4.071 4.600 4.782 4.928 4.880 5.503 5.567 5.426 5.292 5.073 6.109 5.970 5.567 5.374 4.093 3.303 3.951 3.869 4.580 4.624 4.649 5.732 4.867 5.586 4.766 5.127 4.348 4.015 3.689 3.119 4.119 2.917 3.304 3.897 3.876 4.583 4.150 4.409 4.526 4.988 4.707 4.458 4.496 4.625 4.470 5.676 5.522 5.419 4.725 4.644 5.053 5.198 5.195 3.622 3.300 1.423 1.186 
1.070 1.254 2.295 3.649 3.592 2.940 3.827 3.460 3.550 3.698 3.883 3.350 3.922 4.086 5.217 4.449 4.137 3.767 3.487 3.868 3.558 3.870 4.258 4.053 3.661 3.839 3.300 3.214 4.123 3.928 4.951 5.623 5.765 5.225 4.835 4.165 4.005 4.300 4.494 4.594 4.300 4.855 5.152 4.656 5.237 3.976 4.113 3.867 4.317 3.977 4.453 4.333 4.213 4.893 4.689 5.074 5.066 5.297 5.216 5.686 4.299 4.718 3.447 4.128 4.040 4.059 4.785 5.241 5.333 5.933 5.494 5.236 4.577 4.523 3.892 4.085 4.006 4.019 4.310 4.292 3.097 3.674 4.872 4.993 4.899 5.183 5.391 5.142 4.200 4.420 3.747 4.335 4.759 4.740 5.865 4.482 4.533 4.343 4.699 5.093 3.691 3.826 2.029 1.246 
1.192 1.404 2.382 3.155 4.549 4.234 4.059 4.416 4.478 3.969 4.248 3.736 4.556 4.709 4.081 3.924 3.675 3.203 4.060 4.241 4.028 3.876 3.647 4.190 3.550 2.842 4.180 3.226 4.023 4.697 5.065 4.609 4.919 5.313 4.957 4.615 4.471 4.226 4.025 4.294 4.376 5.276 5.506 5.821 4.946 4.710 4.411 3.992 4.780 4.222 3.643 3.680 3.838 4.095 4.302 4.773 4.654 5.056 4.176 5.242 4.131 4.055 3.316 4.573 4.005 4.066 4.952 5.134 5.129 5.744 5.606 4.815 4.065 4.605 3.787 4.388 3.763 4.353 4.331 4.124 3.927 3.774 4.075 4.781 4.503 4.949 4.537 4.858 3.543 4.092 4.453 4.070 5.008 4.956 5.912 5.531 4.970 4.708 4.736 4.899 4.235 3.652 2.101 0.951 
0.933 1.720 2.375 3.479 4.802 3.890 4.338 4.164 4.133 4.646 4.429 4.483 4.192 4.228 4.641 4.205 4.136 3.866 3.929 4.184 4.125 4.306 5.245 4.204 3.777 3.008 3.779 3.589 4.015 4.151 4.473 4.513 5.100 4.895 4.823 4.526 3.873 4.166 3.945 4.334 4.037 3.969 4.607 4.715 5.103 5.207 4.111 4.475 3.833 3.889 3.203 3.582 4.118 3.144 3.883 4.772 4.175 4.674 4.457 5.296 4.730 4.348 3.367 3.862 3.718 4.106 4.590 5.583 5.051 5.312 4.744 5.104 5.059 4.945 4.653 4.748 4.525 4.527 4.235 4.944 4.477 4.410 4.484 5.259 4.471 4.935 5.275 5.218 4.434 4.012 3.808 3.670 4.724 4.650 5.158 4.848 4.608 3.881 4.619 4.184 4.403 3.324 2.425 1.075 
1.027 1.446 2.988 3.609 4.581 5.112 4.647 4.165 5.133 4.894 4.561 4.107 3.884 4.671 4.568 4.565 4.002 3.822 4.336 5.385 5.485 4.961 5.335 4.274 4.657 3.258 3.620 3.452 3.474 4.002 5.365 4.570 4.205 4.865 4.193 4.019 3.682 3.849 3.319 3.711 4.258 4.329 4.935 5.177 4.829 5.183 4.382 4.213 4.413 4.000 3.611 3.727 4.090 4.160 3.371 3.960 4.770 4.086 3.735 4.316 4.461 4.374 3.963 4.548 3.944 3.765 3.792 4.207 4.714 4.787 4.629 5.200 4.283 5.470 4.868 5.423 4.918 4.255 4.603 5.219 4.130 4.620 4.794 5.172 4.968 4.696 4.233 4.711 5.241 4.439 4.357 4.864 4.706 5.523 5.109 4.692 4.527 3.147 4.074 4.066 4.197 3.704 2.768 1.139 
0.993 1.689 3.065 3.794 5.348 4.680 4.642 3.987 3.660 4.277 4.343 4.411 4.981 4.482 4.708 4.865 4.147 5.222 4.994 5.206 5.395 4.555 5.080 4.790 3.630 2.682 3.511 3.482 4.405 4.101 3.846 3.914 4.265 4.887 4.158 3.682 4.134 3.168 3.563 3.286 3.671 3.943 4.014 3.830 3.776 4.534 4.042 3.838 4.507 4.105 3.704 4.204 3.894 4.086 3.814 4.698 4.673 4.492 4.078 4.678 5.027 4.470 4.210 4.039 3.960 4.554 4.340 4.330 4.252 4.910 4.609 4.819 4.769 5.383 4.403 5.401 4.603 5.550 4.778 4.993 4.794 4.466 4.758 4.326 4.801 5.111 5.777 5.250 5.119 4.860 4.561 5.009 5.216 4.629 4.030 4.371 4.107 4.166 4.074 4.024 3.918 3.857 2.751 1.038 
0.860 1.720 2.611 3.643 4.743 4.855 4.560 4.268 4.405 4.689 5.027 4.362 4.092 5.243 4.242 5.288 5.122 5.190 5.257 5.945 5.682 5.442 5.595 4.451 4.205 2.795 3.609 4.109 4.701 4.621 4.827 4.755 4.019 4.784 3.942 3.484 3.172 3.446 3.172 3.114 3.973 4.292 4.190 3.925 4.385 4.138 4.839 3.958 3.985 4.420 3.561 5.047 4.292 4.735 4.112 3.969 4.065 4.173 4.784 4.404 5.271 4.892 3.974 4.639 4.559 4.282 4.413 3.513 3.387 4.665 3.885 4.640 4.536 5.560 4.291 5.477 4.609 5.007 5.309 5.223 5.893 4.479 5.293 4.813 4.988 4.870 5.431 5.158 5.478 6.093 4.681 4.403 4.146 4.935 4.577 4.964 4.434 4.485 4.163 4.143 4.083 3.593 2.300 0.773 
0.728 1.789 2.695 3.599 4.891 5.226 4.706 4.186 3.758 3.870 3.956 4.151 4.418 5.357 5.174 5.231 4.834 5.514 4.595 5.008 5.241 5.069 4.721 4.376 4.445 3.536 4.337 4.209 4.026 4.530 4.139 4.289 3.767 4.502 3.847 3.246 3.465 3.066 3.326 4.055 3.284 3.361 3.590 3.168 3.499 3.553 3.377 4.732 4.431 4.640 4.455 5.007 4.163 4.821 3.965 4.495 5.311 5.147 5.168 5.002 4.983 4.469 4.991 4.376 4.931 5.204 4.443 4.518 3.839 4.002 4.613 4.338 3.737 5.548 4.999 4.686 4.689 4.592 5.303 4.972 4.944 4.423 5.463 4.085 5.320 5.276 5.219 5.193 5.427 5.482 4.304 5.005 4.382 4.891 3.871 4.145 4.445 4.279 4.493 4.387 4.237 3.529 2.487 1.139 
0.779 1.514 2.737 3.790 4.325 4.758 4.596 4.388 4.255 4.319 3.915 3.728 3.862 4.716 5.211 4.686 4.879 5.143 4.776 5.278 4.709 4.835 4.627 4.872 4.393 4.347 4.238 4.344 5.149 5.291 4.913 4.297 4.033 4.372 4.723 3.705 3.767 3.201 3.317 3.154 3.811 4.069 3.884 3.107 3.006 3.864 3.823 4.292 4.040 4.413 4.153 5.468 4.811 4.391 4.509 5.243 4.655 4.510 5.179 4.870 5.188 5.071 5.057 5.060 3.744 4.860 4.899 3.553 3.357 3.769 3.786 4.477 4.253 4.902 4.384 4.814 4.703 4.611 5.525 4.514 5.376 5.054 5.387 5.030 5.181 5.520 4.854 4.904 4.580 5.986 5.033 5.493 4.469 4.440 3.791 3.856 4.233 4.358 4.128 3.257 3.490 3.252 2.790 1.018 
0.754 1.203 2.372 3.549 4.746 5.051 4.986 4.538 3.735 3.411 4.148 3.140 3.887 4.207 4.781 4.314 3.495 4.895 4.233 5.035 4.230 5.138 3.908 4.233 4.662 4.260 4.659 4.455 4.872 3.948 4.127 2.910 4.033 3.546 4.098 3.740 3.761 3.909 3.438 3.447 4.065 2.946 3.586 3.358 3.233 3.711 3.497 4.771 5.165 4.486 3.882 4.988 4.766 5.506 5.742 5.075 4.348 5.090 4.983 4.843 5.082 5.168 4.768 4.952 4.561 4.867 4.573 3.876 3.919 4.056 3.862 4.367 3.910 4.614 4.538 4.949 4.575 4.847 4.856 4.476 4.508 4.842 5.513 5.102 4.557 6.028 5.083 5.301 4.942 5.100 4.147 4.454 3.585 3.890 3.385 3.791 3.641 3.986 4.435 4.211 4.296 3.644 2.260 0.903 
0.784 1.158 1.986 2.962 3.996 3.788 4.161 3.779 3.881 3.967 4.501 3.918 3.644 3.591 3.583 3.709 3.359 4.399 3.508 4.376 3.460 4.366 4.268 4.568 5.038 4.843 5.201 5.072 5.723 4.751 4.571 3.926 4.585 4.196 3.883 4.224 4.803 3.779 4.512 3.536 3.252 3.372 3.993 4.013 4.418 4.746 3.925 5.140 4.400 3.923 3.618 4.403 5.044 4.996 5.420 5.485 5.196 4.243 4.076 5.162 4.635 5.714 5.300 5.006 4.236 3.623 4.614 4.258 3.638 4.426 4.340 4.204 4.906 5.179 5.061 4.798 4.407 4.333 4.053 4.530 4.028 5.625 5.342 6.008 5.246 5.814 4.459 4.759 4.482 5.521 4.258 4.012 3.701 3.836 3.108 2.940 3.705 4.545 4.596 4.442 3.202 3.011 2.241 1.129 
0.756 1.372 2.210 2.789 3.978 3.748 4.532 4.362 4.080 3.935 3.828 3.190 3.203 4.137 3.471 4.208 3.437 4.060 3.492 4.052 3.328 3.592 3.408 3.420 3.888 4.695 4.653 5.602 5.748 5.335 4.756 3.921 4.109 3.503 4.380 4.708 4.515 4.714 4.666 4.583 4.635 4.215 3.814 4.241 4.080 4.622 4.708 5.136 5.364 4.501 4.200 4.487 4.858 4.268 5.285 5.020 3.870 4.780 4.730 4.567 5.064 4.758 4.477 4.182 3.986 3.945 4.435 3.879 4.739 4.596 5.142 4.694 5.383 5.084 4.637 4.601 3.434 4.755 4.494 4.841 4.740 5.426 5.669 5.929 5.292 5.382 4.657 4.889 4.164 4.729 3.858 4.300 3.692 3.117 3.289 4.270 3.827 4.164 4.378 3.975 3.278 2.350 2.081 0.935 
0.436 1.160 1.744 3.110 3.498 4.019 4.186 4.026 3.959 4.304 4.625 4.562 4.179 3.856 3.558 3.921 3.378 3.586 2.932 3.695 2.816 3.235 3.269 4.218 4.125 4.908 5.780 5.819 6.347 5.397 4.133 4.065 4.060 4.015 4.747 4.856 5.091 5.143 4.308 4.645 4.112 5.162 4.477 4.418 4.646 5.013 5.367 5.564 5.334 4.456 3.770 4.253 4.277 4.622 4.750 4.268 4.622 4.655 4.777 4.902 4.121 3.975 4.316 3.963 4.162 4.061 4.223 3.535 4.419 4.076 5.376 4.833 4.756 5.431 5.029 5.371 4.287 5.291 4.596 4.951 4.333 5.195 5.463 5.250 5.103 5.085 4.720 4.352 3.883 4.381 4.215 3.833 3.827 4.105 4.452 4.013 4.604 4.214 4.723 4.005 3.300 2.422 2.079 0.706 
0.675 1.225 2.176 3.321 4.696 4.513 4.549 5.002 3.952 5.117 4.776 4.986 4.348 4.611 3.973 3.843 3.377 3.869 3.877 4.379 3.096 3.582 3.179 3.827 4.282 4.897 5.579 6.462 6.047 5.058 4.171 3.766 3.501 4.173 4.174 4.855 4.836 5.373 5.153 4.756 4.015 4.543 4.858 4.959 5.188 5.225 4.434 6.031 4.759 4.672 4.137 4.512 4.341 4.156 4.559 4.636 4.948 4.474 4.661 3.925 3.303 3.712 4.070 4.190 3.892 3.770 4.371 4.232 4.822 5.109 5.013 4.872 4.482 4.764 4.880 5.343 4.412 5.134 4.617 5.415 5.542 4.981 5.380 5.171 4.381 4.110 4.580 4.582 4.761 4.576 4.424 4.305 4.488 4.272 4.702 4.719 4.749 4.097 4.822 4.290 3.312 1.743 1.422 0.790 
0.955 1.478 3.081 3.540 4.441 4.431 4.075 4.428 5.081 5.230 4.747 5.049 4.754 4.673 4.104 4.495 3.119 3.892 3.727 3.959 3.334 3.668 4.711 5.140 4.882 4.561 4.751 5.520 5.225 5.399 4.102 3.815 3.881 4.120 4.389 5.084 4.589 5.792 5.222 4.870 3.888 3.630 3.290 4.288 4.392 5.283 4.734 5.524 4.583 5.234 3.872 3.882 4.301 3.472 4.985 4.561 4.722 4.353 4.348 4.517 3.792 3.667 4.059 5.020 4.289 4.348 4.801 3.932 3.513 4.627 4.359 4.510 4.205 4.700 4.660 4.921 5.389 6.016 5.778 5.617 4.623 4.123 4.445 4.412 4.430 4.415 5.160 4.246 3.792 3.785 4.143 4.515 4.469 4.873 4.347 5.351 4.406 4.677 4.907 3.891 3.343 2.682 2.345 0.863 
1.083 1.179 3.093 3.696 5.290 5.321 4.810 5.297 4.748 5.668 4.843 5.653 4.088 4.373 4.235 4.097 3.632 3.647 4.446 4.443 4.085 4.043 4.510 4.384 4.948 4.915 5.294 4.901 4.992 3.958 3.403 4.265 3.501 4.606 4.975 5.200 4.375 5.387 4.751 4.477 4.656 5.399 4.301 4.865 4.155 4.787 4.215 5.140 5.122 4.716 4.758 4.143 4.335 4.014 4.393 4.242 3.989 3.729 3.947 4.138 3.747 4.378 4.983 5.081 4.539 4.464 4.084 4.093 4.259 4.484 4.985 4.284 4.340 5.073 4.441 5.868 6.028 5.755 5.460 5.245 4.666 4.302 3.929 5.069 4.945 4.499 4.647 4.132 4.598 4.787 4.961 5.085 3.590 5.002 4.770 5.485 4.858 4.868 4.386 4.765 4.440 3.133 1.878 0.311 
0.896 1.316 2.251 3.070 4.587 4.758 5.068 4.185 4.289 4.964 4.655 5.817 4.686 4.798 4.647 4.863 3.886 3.624 4.386 4.029 4.480 3.620 4.006 4.758 5.172 4.458 5.486 4.925 4.151 4.290 3.950 4.132 4.226 5.091 5.015 5.504 5.044 4.653 4.499 4.157 3.819 4.471 3.886 4.387 4.030 4.521 4.081 4.758 4.758 5.021 5.380 4.603 4.259 4.254 3.807 3.935 4.046 4.387 4.241 5.011 5.761 4.851 5.513 5.271 4.945 4.858 4.842 4.468 3.309 4.073 3.721 3.796 3.766 4.399 5.028 5.398 5.641 5.880 4.458 5.197 4.061 3.777 4.552 4.387 4.190 4.557 5.191 5.081 3.943 3.824 3.689 4.394 4.006 4.801 4.777 5.505 5.156 4.807 4.567 4.530 4.782 3.196 2.551 0.987 
0.604 1.538 2.350 2.794 4.433 3.988 4.366 3.894 4.335 4.204 4.533 5.242 5.062 4.724 4.617 3.964 3.312 3.538 4.292 4.528 4.735 4.362 4.281 4.724 4.539 4.344 4.429 4.504 4.915 4.204 3.857 3.849 3.726 4.664 5.095 4.967 4.321 4.854 4.909 5.005 4.661 5.133 5.107 4.534 4.963 4.572 4.881 4.039 4.487 5.377 4.798 5.175 3.922 4.654 3.913 4.783 4.393 4.328 4.871 4.237 5.271 5.343 5.780 5.674 4.836 4.265 4.102 3.640 3.840 4.192 4.354 4.929 4.268 5.256 4.634 5.285 5.488 5.744 4.703 4.863 4.500 4.159 4.557 5.529 5.417 5.166 4.758 4.878 3.525 3.747 3.807 4.487 3.950 4.825 4.698 5.397 5.302 5.161 5.108 4.670 4.739 3.940 2.618 0.907 
0.377 1.017 2.665 2.427 4.347 3.880 4.585 2.705 4.442 3.952 4.576 5.046 4.851 4.910 3.707 4.091 4.487 3.480 3.470 3.869 3.928 3.471 3.355 4.026 4.856 4.720 5.084 5.315 4.404 4.545 5.002 4.989 4.551 5.012 4.364 4.569 3.819 4.080 4.253 4.798 4.680 4.613 4.085 4.534 4.182 3.962 4.124 4.438 4.536 5.084 4.692 4.775 3.689 4.809 4.086 4.491 4.711 5.016 5.345 5.368 5.478 5.500 5.606 4.969 5.484 5.077 4.804 4.950 3.956 3.184 4.077 3.778 4.546 3.735 4.348 5.556 4.957 5.046 4.674 4.470 4.431 4.597 4.257 5.357 5.123 4.766 4.348 4.460 3.998 3.712 2.977 4.410 3.952 4.723 3.796 4.626 5.021 4.735 4.558 4.786 4.799 4.006 2.666 1.274 
0.522 0.936 2.617 2.707 4.584 3.315 4.333 2.752 4.147 3.718 4.285 4.644 4.640 4.450 3.759 3.657 3.654 3.682 3.893 3.572 4.575 4.074 3.864 4.232 3.376 3.788 4.388 4.780 4.467 5.557 4.311 4.642 3.586 4.071 4.511 4.625 4.230 4.579 4.705 5.033 5.116 5.015 5.096 5.516 4.815 5.500 4.312 4.507 3.651 4.382 4.600 4.132 4.279 4.651 4.127 3.601 3.680 4.550 4.695 5.002 4.852 4.658 5.838 4.841 4.547 4.134 3.886 3.943 3.845 3.465 3.778 4.027 4.514 4.553 4.782 4.643 5.607 5.184 3.783 5.048 3.882 4.067 5.122 5.111 5.231 5.607 4.895 4.085 4.034 4.379 2.971 4.305 4.678 4.755 3.697 4.488 4.287 4.951 4.617 5.052 4.297 3.801 2.890 1.772 
1.070 1.356 2.811 3.109 4.542 3.676 3.829 2.991 3.426 4.126 3.924 4.664 4.752 4.040 3.335 3.355 3.813 4.101 3.725 3.547 4.039 3.827 4.016 4.326 4.285 4.126 3.886 4.955 4.788 5.069 5.247 4.809 4.233 4.402 3.931 3.851 4.173 4.748 4.719 5.404 4.789 4.786 4.258 5.570 4.872 4.819 4.437 4.250 3.689 4.195 4.366 4.326 4.489 4.512 3.876 3.917 3.393 4.142 4.664 4.444 5.876 5.280 4.896 4.818 4.706 4.381 3.435 3.704 3.933 3.426 4.173 4.371 3.861 3.609 3.927 4.586 4.813 5.007 4.204 4.439 4.452 4.112 4.478 4.557 5.065 5.130 4.192 3.776 3.254 3.914 3.159 3.903 3.922 4.591 3.992 4.909 4.557 4.416 3.622 3.946 3.360 3.756 2.220 1.477 
1.007 1.741 2.934 3.240 4.386 3.619 2.905 3.338 4.121 4.495 3.815 4.227 3.856 3.847 2.673 3.683 3.541 4.201 4.544 4.430 3.865 4.678 4.486 3.943 4.326 4.669 5.153 4.541 4.641 4.876 5.075 4.285 4.803 4.610 4.318 4.272 4.608 4.746 4.927 5.273 5.310 5.435 4.583 5.554 4.859 5.628 5.408 4.291 4.057 3.781 3.499 3.375 3.244 3.867 3.116 3.478 3.153 3.965 4.021 4.448 4.465 5.062 4.553 4.560 4.301 4.100 3.255 3.894 3.563 3.375 3.510 4.325 4.135 3.890 4.538 4.576 4.198 4.701 4.332 4.634 4.424 4.187 4.426 4.844 4.827 4.997 5.291 4.332 3.781 4.517 3.311 4.182 3.563 4.834 3.587 3.972 4.011 4.922 4.290 4.919 4.019 2.986 2.328 1.275 
1.053 1.303 2.393 3.149 4.198 3.968 3.828 4.139 4.849 4.480 3.784 3.960 3.647 3.219 3.066 3.332 3.254 5.039 4.051 4.380 3.623 4.096 4.336 4.285 4.862 4.683 4.973 4.083 4.132 4.122 4.107 4.585 5.024 4.591 5.075 4.552 4.591 4.927 4.586 5.501 5.573 5.241 4.812 5.386 5.174 5.037 4.769 4.540 3.749 4.035 3.521 4.149 4.106 4.511 3.567 3.669 3.256 3.641 3.879 4.049 3.807 5.044 5.009 4.036 4.295 4.277 3.603 3.885 3.532 3.667 3.458 4.044 4.385 4.288 4.924 5.350 5.042 4.707 4.461 5.206 3.754 4.110 4.512 4.403 4.735 5.691 5.070 4.448 3.963 4.754 3.179 4.089 4.423 4.184 3.875 4.191 4.139 4.826 4.513 3.952 3.436 2.994 1.973 1.320 
1.077 1.232 2.017 2.567 4.222 4.342 4.631 3.641 4.316 4.369 4.307 4.002 3.815 3.582 3.707 4.045 3.389 3.987 4.409 4.642 3.887 4.924 5.008 5.013 5.100 4.985 4.879 4.023 4.420 4.569 4.370 4.501 4.561 4.937 4.369 4.347 4.665 4.908 5.029 5.456 5.464 5.033 5.200 4.586 4.787 4.496 5.026 4.355 3.653 4.952 4.156 4.025 4.151 5.232 3.700 3.840 3.075 3.620 3.355 4.222 4.229 4.470 4.531 3.792 4.181 3.869 3.825 4.222 3.665 3.654 3.570 4.199 4.667 4.473 4.810 4.537 4.939 5.575 5.132 5.298 4.887 4.155 5.099 5.583 4.802 5.055 4.778 4.856 3.989 4.692 4.875 4.268 4.794 4.831 4.322 4.324 4.095 4.598 4.617 4.457 4.018 3.439 1.937 1.439 
0.534 1.370 2.363 2.766 4.606 4.040 4.548 4.243 4.951 4.129 4.154 3.514 3.611 3.793 3.595 3.670 3.775 4.250 4.414 4.377 4.950 5.070 5.580 5.535 5.154 5.315 4.741 3.549 3.853 4.321 3.964 3.974 4.723 4.679 3.996 4.936 3.920 3.824 5.232 4.631 5.076 4.241 4.127 3.408 4.260 4.686 5.286 5.000 4.479 4.559 4.209 4.814 4.754 5.104 4.707 4.113 3.457 3.366 3.174 4.061 3.988 4.975 4.739 4.500 4.168 4.508 3.705 4.165 3.579 3.432 3.740 4.887 4.476 4.831 4.799 5.131 5.249 4.522 4.939 5.138 5.235 4.531 4.596 5.013 4.780 5.686 5.405 5.077 5.174 4.646 4.536 3.855 4.347 4.259 4.317 4.373 4.432 5.202 5.223 5.860 3.782 3.576 1.812 0.949 
0.607 0.932 2.580 3.394 4.376 4.752 4.795 4.371 3.942 4.020 4.211 3.669 4.101 3.305 3.755 3.712 4.459 4.149 4.946 4.899 4.876 4.969 4.955 4.765 4.887 5.049 5.216 4.071 4.536 4.370 4.044 4.233 4.710 4.917 4.466 4.085 4.921 4.816 4.529 4.175 4.522 3.553 4.299 3.059 3.185 4.340 4.533 4.887 4.147 4.608 4.987 4.863 4.793 4.662 4.604 4.091 3.879 3.677 3.346 3.883 4.358 4.796 4.655 4.890 4.263 5.631 4.018 3.805 3.433 3.780 3.728 4.641 4.788 5.659 5.300 5.227 4.603 4.581 5.047 5.139 5.506 5.300 4.626 5.437 4.843 5.153 5.375 5.131 4.949 4.314 4.520 4.511 4.375 3.842 5.226 4.882 4.743 5.012 4.520 5.251 4.188 3.978 2.523 1.611 
0.937 1.215 2.583 3.521 4.195 4.509 4.313 3.422 3.364 4.351 3.688 3.949 4.099 3.572 4.369 3.683 4.355 4.194 5.038 4.624 5.718 5.645 5.466 4.867 5.538 4.685 5.081 4.180 3.563 4.256 4.558 4.109 4.112 4.176 3.987 4.760 5.021 3.596 4.434 3.193 3.667 3.768 3.623 3.821 3.483 4.092 4.704 4.434 4.754 5.016 4.563 3.989 5.348 5.124 5.197 4.651 4.312 3.560 4.106 3.958 3.474 4.580 4.826 4.633 4.373 4.633 4.210 4.116 3.571 3.930 3.026 4.395 4.539 4.668 3.645 4.061 4.347 4.623 4.467 5.317 5.583 5.215 5.253 5.251 5.389 4.965 5.266 4.458 4.356 4.409 4.786 4.773 4.885 4.034 3.923 4.754 4.514 5.324 5.572 5.288 4.317 4.012 2.291 1.541 
0.723 1.397 2.890 3.348 4.826 4.246 3.945 3.818 3.501 4.032 4.152 4.146 4.630 4.499 4.466 4.143 4.560 4.385 4.798 4.824 5.157 4.686 4.854 4.454 4.191 4.114 4.499 4.479 4.502 4.345 4.109 3.767 4.290 4.694 4.550 4.791 4.396 4.372 4.735 4.195 4.353 3.230 3.095 2.955 3.113 4.190 4.443 4.881 5.022 4.141 4.637 3.820 4.999 4.940 5.081 4.513 5.228 4.402 4.552 4.142 4.132 4.742 4.768 4.635 4.883 4.331 3.999 4.224 3.327 4.061 4.149 4.843 4.113 4.817 3.571 4.044 4.261 4.108 4.743 4.696 5.130 4.463 5.226 4.718 4.642 5.050 4.415 4.753 3.972 4.185 3.863 4.935 4.911 4.913 4.871 4.542 4.098 4.536 4.843 5.546 4.202 3.997 2.210 1.423 
0.991 1.075 2.743 3.149 3.893 4.107 3.899 3.382 3.801 3.947 4.090 3.244 4.076 3.997 3.946 4.568 4.874 4.878 4.692 4.605 4.906 4.639 4.556 4.708 4.748 4.104 4.415 4.326 4.066 4.149 4.011 4.587 4.289 4.607 4.472 4.268 4.271 3.779 3.573 3.784 3.500 3.642 3.537 3.153 3.258 4.313 5.087 4.318 4.264 4.993 4.607 4.292 5.221 4.731 4.796 4.835 4.583 4.006 4.126 4.182 4.021 3.557 4.745 3.893 4.205 4.481 3.992 4.222 3.963 4.224 3.533 4.145 3.811 4.327 3.383 3.485 3.826 3.552 3.934 3.868 4.893 4.773 4.467 4.676 3.951 4.218 4.187 5.399 4.191 5.340 4.539 5.111 4.046 4.540 4.331 4.634 4.443 5.039 4.800 5.685 4.078 3.604 2.316 1.587 
0.753 1.267 2.408 2.485 3.797 3.783 4.148 3.970 4.878 5.236 4.304 4.815 4.800 4.235 4.594 4.290 4.237 4.363 4.506 5.281 5.265 4.224 3.885 3.793 4.323 3.584 3.933 3.941 4.074 4.222 4.020 4.510 4.293 5.088 4.287 4.978 4.117 4.148 4.181 3.397 3.834 3.909 3.787 4.001 3.752 4.778 4.895 4.570 5.018 4.427 4.928 4.425 3.966 4.194 3.692 4.602 3.664 4.472 4.667 4.237 4.670 3.852 4.252 3.986 4.605 4.836 4.119 3.563 3.035 3.987 3.569 4.478 3.996 4.725 3.700 3.602 3.368 3.058 3.383 4.001 4.036 3.868 4.090 4.758 3.700 4.848 3.889 4.473 4.021 5.167 4.946 5.343 4.361 4.879 4.296 4.771 3.823 4.622 4.134 5.051 3.932 3.824 2.351 1.651 
0.455 1.232 1.905 2.949 3.986 3.674 4.479 3.462 4.172 4.669 4.189 4.391 4.788 4.757 4.524 4.305 4.177 4.220 4.156 4.305 4.523 3.582 2.996 4.045 4.396 4.250 3.655 4.610 3.635 4.110 4.217 5.120 4.754 4.494 3.716 4.383 3.500 4.559 4.261 3.937 2.951 2.783 4.051 3.678 4.516 4.845 5.186 4.671 4.849 4.977 5.096 4.418 4.040 3.698 3.543 4.119 4.260 4.203 4.366 4.457 4.014 3.672 3.953 4.165 4.493 4.343 4.254 3.931 3.161 3.687 3.115 3.884 3.886 4.153 3.717 4.016 3.619 3.522 3.411 3.785 4.259 4.344 3.797 3.913 3.193 4.001 3.878 4.774 3.932 4.825 4.655 5.060 5.019 4.452 3.701 4.327 3.481 4.514 4.551 5.275 3.792 3.016 1.788 1.450 
0.596 0.692 1.812 2.079 2.991 4.941 4.369 4.926 5.020 5.869 5.590 4.154 4.627 3.864 4.146 5.135 4.309 4.657 4.798 4.722 3.924 4.771 3.191 3.785 3.600 3.792 3.351 4.250 4.148 4.545 4.264 4.686 4.395 5.192 5.058 5.185 4.123 4.451 4.168 4.314 3.900 3.235 4.236 4.504 5.111 5.056 5.672 4.792 4.936 4.338 4.343 4.679 4.157 3.168 3.336 3.293 3.556 4.217 4.765 5.214 4.749 4.920 4.944 4.423 4.648 3.966 3.631 3.556 3.570 3.388 3.635 4.165 4.075 3.894 3.576 3.280 4.516 3.452 3.756 4.046 3.909 4.489 3.066 3.997 3.802 4.103 4.129 4.329 3.796 4.168 4.297 5.004 3.800 4.350 4.034 4.554 3.975 4.756 4.242 4.978 3.807 3.066 1.962 1.048 
0.473 1.244 1.791 2.423 3.262 3.915 4.273 5.153 4.973 5.033 5.346 4.856 4.651 4.196 3.888 4.121 3.214 4.212 3.140 4.511 3.878 4.276 3.691 3.829 3.603 3.754 3.393 4.011 4.242 3.833 4.498 4.381 4.623 4.716 5.067 5.003 4.029 4.186 3.576 4.057 3.689 4.110 4.907 4.593 5.164 4.971 5.538 5.616 4.744 4.960 4.953 4.482 3.841 3.248 3.064 3.727 4.262 4.421 4.479 4.324 4.936 4.414 5.052 4.474 4.267 4.225 4.277 3.988 4.202 3.328 3.670 3.833 4.992 3.659 4.569 4.274 4.388 4.596 4.151 4.247 3.759 3.547 4.375 3.678 4.150 4.233 3.293 3.768 3.856 4.033 3.820 4.621 3.537 4.284 3.708 5.342 4.575 4.197 3.868 4.205 3.005 2.795 1.711 1.093 
0.430 1.060 1.948 3.235 3.432 4.204 5.116 4.636 5.740 5.286 5.159 5.348 4.335 4.799 4.307 4.276 3.641 3.993 4.450 5.031 4.514 4.339 3.493 3.049 3.166 2.950 3.871 3.554 4.556 3.635 4.740 4.591 5.146 4.915 4.905 5.621 5.262 5.298 4.711 4.425 3.973 3.578 4.474 4.922 5.887 6.154 5.752 5.669 5.247 4.463 3.556 4.119 3.726 3.944 4.218 4.064 3.892 3.933 4.985 4.317 5.801 5.188 4.577 4.553 5.046 4.269 4.175 3.809 4.371 3.654 3.904 3.102 4.452 3.788 4.643 4.268 4.855 4.781 3.654 3.278 3.610 3.208 4.044 3.664 4.089 4.682 4.412 3.946 3.562 4.296 3.348 4.450 3.731 3.754 3.657 4.446 3.508 4.452 4.201 3.940 3.485 3.069 1.621 1.174 
0.721 0.860 2.247 3.095 4.971 4.507 5.119 5.099 5.419 4.771 4.450 4.544 4.526 4.217 4.415 4.305 4.301 4.482 4.687 3.469 4.008 3.907 3.127 3.873 3.976 3.457 4.073 3.754 4.629 3.198 4.317 3.915 5.134 4.173 4.938 5.053 4.780 4.497 4.745 4.280 4.430 4.503 4.670 5.207 5.333 5.669 5.749 5.241 4.903 4.122 3.921 3.798 3.385 3.608 3.991 3.185 4.147 4.262 4.931 4.902 5.582 4.541 4.208 3.756 4.399 3.966 4.295 4.639 4.389 3.760 4.242 3.912 4.009 3.648 3.974 4.657 4.863 4.443 4.966 3.646 4.011 4.174 3.719 3.908 4.402 3.784 4.499 4.034 4.003 4.035 3.812 4.244 3.587 3.916 3.490 4.083 4.165 4.309 4.304 4.898 2.938 2.585 1.211 0.417 
1.193 1.261 2.372 2.948 4.765 4.151 5.611 5.203 4.895 4.928 4.538 5.212 4.978 4.377 4.962 3.926 4.121 3.966 4.875 4.267 4.348 4.377 3.613 3.910 4.426 3.574 3.993 4.139 4.910 4.043 4.788 4.308 5.282 4.085 4.408 4.002 5.813 4.656 5.131 4.966 4.723 4.190 4.505 4.874 5.183 4.976 5.045 4.572 4.013 3.734 3.739 3.798 4.376 3.793 3.649 3.415 4.150 3.973 4.333 4.284 4.216 4.714 4.288 4.267 4.607 4.232 3.894 3.751 4.335 4.018 4.147 3.429 3.321 3.565 4.380 4.653 4.783 4.090 3.715 3.260 3.107 3.474 4.067 3.217 4.381 4.481 4.720 4.760 4.873 3.665 4.092 3.695 3.348 3.114 4.417 4.959 4.359 5.047 4.313 4.575 3.058 2.916 1.829 0.923 
1.087 1.319 2.622 2.810 4.640 4.282 4.840 4.810 4.453 4.747 4.419 4.146 4.511 4.285 4.295 4.030 3.820 2.873 3.976 3.854 4.186 4.608 4.509 3.581 4.241 4.387 4.738 4.520 5.231 4.543 4.050 4.234 4.732 4.140 4.285 4.372 5.108 4.230 4.798 4.274 4.311 3.586 3.747 4.348 4.508 4.719 4.537 4.336 4.133 3.859 4.311 4.575 4.198 3.601 3.362 3.247 3.191 3.974 3.858 3.783 3.782 4.278 3.176 4.231 3.392 3.728 3.930 3.983 4.271 3.788 4.253 3.767 4.585 3.928 4.818 4.721 4.106 4.237 4.665 3.859 3.442 3.623 4.340 3.426 4.211 4.442 3.978 4.573 4.711 3.877 3.755 4.082 3.686 3.845 4.167 4.806 4.045 5.460 5.133 4.609 3.364 2.383 1.468 0.904 
[...]
1.172 1.455 2.496 3.339 4.082 4.083 4.757 4.412 3.841 4.236 3.755 3.383 4.661 4.020 4.362 3.802 3.771 2.909 3.355 2.578 3.192 3.767 3.687 4.618 4.324 3.943 3.810 3.738 4.105 4.628 4.360 3.859 3.760 3.755 3.785 3.677 4.343 4.139 3.945 4.069 3.891 2.992 3.346 4.060 5.106 4.948 5.701 5.696 6.067 5.355 5.685 5.384 4.415 4.124 4.052 3.769 3.604 4.111 4.068 3.839 4.460 4.284 4.121 4.137 3.548 3.931 3.567 4.080 3.707 4.741 4.319 4.434 4.574 3.816 3.842 4.382 3.973 4.463 4.124 5.199 4.627 4.348 4.418 4.154 4.435 4.309 4.916 5.310 5.165 5.002 4.335 4.763 4.280 4.198 4.479 3.753 4.486 5.485 5.290 5.524 4.139 3.673 3.030 1.725 
1.159 1.284 2.727 3.036 4.625 4.262 3.830 3.833 3.905 3.961 3.749 3.952 4.863 4.291 5.222 4.215 4.273 2.762 2.989 3.482 3.581 3.212 3.917 3.724 4.129 3.945 4.514 4.070 4.332 4.181 4.063 3.420 4.345 3.855 4.670 4.183 4.100 4.441 3.976 3.820 4.001 3.899 4.117 4.347 4.673 4.994 5.056 6.177 5.900 5.817 6.455 5.234 5.046 4.178 5.268 4.741 3.978 4.209 4.241 5.004 4.698 4.319 4.438 3.709 3.225 3.656 3.522 3.122 3.564 4.153 4.009 4.848 4.580 4.559 4.448 4.954 4.141 4.027 4.526 4.716 4.216 4.902 4.880 4.950 4.866 5.152 4.962 4.430 4.814 4.102 3.629 3.379 4.329 4.168 4.375 4.828 4.213 4.621 4.425 5.167 3.891 3.809 2.920 1.017 
0.992 1.247 2.277 2.893 3.796 3.596 4.004 3.794 3.998 3.696 3.668 3.929 4.895 4.437 4.630 3.665 4.224 3.932 3.918 3.716 3.675 3.268 3.816 3.773 3.975 3.841 4.026 3.371 3.399 3.285 5.089 3.976 4.590 3.573 3.929 4.651 4.249 4.368 3.964 3.765 3.717 3.596 4.040 4.691 5.200 5.556 6.457 5.991 6.071 5.348 5.756 5.568 4.938 4.243 4.103 4.147 5.021 4.583 5.500 4.903 4.488 4.303 3.765 3.601 3.761 3.183 3.327 3.135 3.744 5.198 4.803 5.190 5.181 4.408 3.898 4.774 4.735 3.837 4.484 4.265 4.024 4.083 4.203 4.651 4.116 4.679 4.193 4.424 5.091 4.103 4.339 2.993 4.010 4.465 4.187 4.172 3.187 3.654 4.836 4.385 3.543 3.296 2.707 1.411 
0.695 1.027 1.668 2.483 3.521 4.339 4.179 4.739 4.247 4.389 4.033 4.290 5.278 4.599 4.089 4.308 4.045 4.098 4.191 3.466 3.872 3.350 4.143 3.628 3.615 3.927 4.280 2.931 4.502 4.017 4.633 4.045 4.665 4.525 4.236 4.856 4.813 3.932 4.209 4.898 4.706 4.998 4.789 4.596 5.206 5.097 5.548 5.416 5.605 4.742 5.421 5.612 5.727 5.065 5.490 4.258 4.226 4.050 4.069 4.105 5.101 4.186 4.310 3.793 3.949 3.446 2.949 2.936 3.543 4.008 4.018 4.780 5.301 4.924 4.448 4.270 4.634 4.238 4.094 4.740 4.276 4.142 4.181 4.908 4.066 3.676 4.677 4.373 4.045 3.913 3.976 3.503 3.790 4.505 4.847 4.311 4.259 3.389 3.851 4.316 3.510 2.554 2.385 0.886 
0.360 0.641 1.173 2.243 3.337 4.502 3.832 4.637 4.198 4.274 3.664 3.692 4.235 4.416 3.988 3.906 3.702 3.900 3.739 4.125 4.141 4.083 3.613 3.964 4.238 3.374 4.345 3.504 4.566 4.440 4.765 4.396 4.548 4.340 4.326 4.042 4.398 4.568 4.864 4.405 4.746 4.467 5.027 4.817 4.807 3.937 4.450 4.922 5.126 5.512 5.499 5.398 5.440 4.581 4.807 3.998 4.707 4.424 4.127 4.338 5.011 4.520 3.944 3.974 3.902 2.881 3.127 2.914 3.658 4.219 4.721 4.578 4.833 5.321 4.888 4.969 5.042 3.785 3.220 3.650 4.099 3.373 3.662 4.029 3.756 3.293 3.558 3.473 4.192 4.180 4.480 4.141 4.072 3.803 4.474 4.565 3.951 3.771 4.512 3.935 2.792 2.174 1.550 0.457 
0.421 0.929 1.283 2.861 3.349 4.820 4.291 5.101 4.891 4.526 3.312 3.388 3.163 3.286 3.511 4.154 4.308 4.581 4.372 4.286 3.662 3.915 4.241 3.518 4.493 3.858 4.636 4.021 4.512 4.931 5.419 5.002 5.200 4.084 4.074 4.067 4.777 4.588 4.539 3.948 4.819 4.701 4.682 4.516 4.352 4.669 4.215 3.726 3.620 4.440 4.795 5.090 4.791 5.189 4.392 4.632 4.874 4.408 4.180 3.534 4.271 4.834 4.454 4.082 3.334 3.344 3.062 2.958 4.347 4.813 4.875 4.259 4.411 4.503 4.616 4.688 4.774 4.095 4.663 4.300 4.905 3.865 4.153 3.721 4.410 3.664 3.878 4.202 4.033 4.133 5.096 4.559 5.207 4.859 4.597 4.364 4.541 3.555 3.532 4.209 3.345 2.130 1.202 0.428 
0.623 1.468 1.753 3.171 3.643 4.163 4.917 5.223 4.643 4.803 3.497 2.911 3.303 3.479 3.529 3.848 4.012 4.698 3.821 4.244 4.687 4.374 4.127 4.247 5.092 4.738 5.163 4.423 5.342 5.291 4.903 4.904 4.243 3.649 4.354 3.649 3.960 4.227 4.882 4.848 5.225 4.515 4.054 3.873 3.573 3.092 3.382 4.247 3.414 4.663 4.562 4.973 4.774 5.232 4.831 4.579 4.334 4.962 4.125 4.237 4.272 5.128 3.967 3.530 3.484 3.112 3.841 3.923 3.821 5.010 5.181 4.849 5.008 4.298 4.877 4.335 5.191 4.299 4.775 4.388 4.847 3.923 3.720 3.382 3.407 3.691 4.199 4.149 4.938 4.837 4.243 4.553 5.195 5.218 4.923 4.607 4.527 4.175 3.693 3.851 2.239 1.614 1.406 0.160 
0.506 0.933 2.132 2.967 4.727 4.801 5.017 4.762 4.668 3.161 3.606 2.993 3.156 3.672 4.008 4.129 4.807 4.847 4.049 4.421 4.262 4.731 4.703 4.582 5.399 5.418 4.836 4.388 4.516 4.487 4.716 4.709 4.555 4.262 3.695 3.972 4.377 3.770 4.354 3.983 4.292 3.545 4.091 4.144 3.359 3.481 3.748 4.310 3.444 4.692 3.912 4.176 4.154 5.613 5.501 5.180 4.139 4.394 4.013 3.439 3.344 4.089 4.077 4.136 3.958 3.934 4.353 4.542 5.074 5.272 5.472 4.979 4.692 4.802 5.084 4.695 5.341 4.939 4.397 4.311 4.049 3.942 3.850 3.948 4.142 4.340 3.845 4.099 3.615 4.814 5.106 5.692 5.698 6.036 5.852 5.557 4.531 4.793 3.458 3.577 3.147 2.085 1.191 0.363 
0.706 0.959 2.182 3.084 5.247 4.078 4.845 4.081 4.452 4.165 4.284 3.818 3.242 3.972 3.591 4.497 4.037 4.887 4.842 4.116 4.649 5.101 4.565 5.019 5.374 5.103 4.924 4.659 4.663 5.066 4.412 3.929 3.405 3.051 4.042 4.313 5.431 4.589 5.345 3.956 4.888 3.697 3.180 3.407 3.416 3.962 4.009 4.367 3.842 4.177 4.175 4.600 4.495 5.375 5.024 4.722 4.395 4.311 3.611 3.708 3.970 4.373 5.182 3.603 3.908 4.468 4.475 4.512 4.706 5.244 4.923 4.602 4.614 4.378 4.548 4.867 5.195 4.966 4.547 4.750 4.348 4.877 4.213 4.402 3.847 4.256 3.682 3.994 3.455 4.733 4.261 4.764 5.439 6.643 4.989 5.781 4.842 4.125 4.252 3.948 2.563 2.531 1.587 0.805 
1.059 1.324 2.408 2.995 3.943 3.969 4.416 4.302 4.386 4.537 3.196 4.332 3.172 3.605 4.047 4.312 3.978 4.829 3.967 3.762 4.123 5.025 4.894 4.866 5.157 5.712 4.799 3.837 3.826 3.655 4.098 4.383 4.435 3.997 5.085 4.063 5.358 4.991 5.044 4.220 4.402 2.952 3.679 4.308 3.717 3.680 3.175 4.393 4.094 4.661 4.662 4.507 5.002 5.250 5.502 4.982 3.889 4.069 3.855 3.775 3.769 4.198 4.080 3.842 4.465 4.856 4.919 4.668 4.817 5.789 4.802 4.369 4.334 4.812 4.876 5.295 4.915 4.356 4.658 3.614 4.254 4.686 3.840 4.325 3.793 4.415 3.940 5.164 4.029 4.196 4.613 5.202 5.299 6.077 5.394 6.206 5.316 5.265 4.115 4.345 2.758 2.367 1.675 0.962 
0.666 1.429 2.149 3.033 4.386 4.809 4.462 5.292 4.566 4.153 4.597 4.829 3.815 4.655 4.417 4.218 4.193 3.614 4.223 3.753 3.746 4.298 4.419 5.144 5.482 5.542 5.107 4.236 3.589 3.307 3.768 3.312 4.126 3.812 4.218 4.377 5.208 4.915 5.303 4.677 4.925 4.227 3.921 3.939 3.741 4.918 4.469 4.665 4.206 5.081 4.821 4.984 4.890 5.158 4.864 5.121 3.663 4.062 4.262 3.804 4.405 4.359 4.812 5.011 4.462 4.918 3.878 4.009 3.859 5.135 4.793 4.870 4.941 5.098 4.324 4.521 4.538 4.113 3.942 4.092 3.315 3.527 4.008 4.438 4.263 4.621 4.114 4.147 4.390 4.491 4.170 4.483 4.044 5.422 5.163 5.449 5.354 5.036 4.641 4.636 3.234 2.586 1.713 1.272 
0.554 1.280 2.025 3.255 3.976 4.016 4.589 4.774 4.533 4.569 4.388 4.329 4.313 3.330 4.696 4.403 3.718 3.873 3.826 3.331 4.383 4.727 5.153 4.770 4.910 5.328 4.812 4.376 4.540 4.297 3.912 4.193 3.627 4.309 4.175 4.226 4.859 4.804 4.685 4.869 4.845 4.720 3.755 4.798 3.453 4.741 4.196 5.120 4.866 5.050 4.530 5.153 5.197 5.198 4.923 5.101 4.956 4.508 4.230 4.444 4.076 4.160 4.852 4.619 4.745 5.178 4.601 4.162 4.234 5.307 4.684 5.084 4.569 5.138 4.650 5.470 5.717 4.841 4.797 3.801 3.307 3.835 3.542 3.548 3.369 4.880 4.622 4.472 4.319 3.933 3.377 3.755 4.592 4.571 4.888 5.008 5.382 4.361 5.499 4.688 3.461 2.857 1.649 1.332 
0.934 0.765 2.267 2.872 3.996 4.165 4.830 5.463 5.882 5.250 4.207 4.157 3.675 3.888 4.691 4.597 4.659 3.455 3.287 3.475 3.425 4.387 5.444 5.948 5.317 5.381 4.352 4.360 3.598 4.601 4.051 4.134 4.246 4.064 4.022 4.306 4.674 5.064 5.032 5.008 4.640 4.731 4.202 4.975 4.294 5.440 4.364 5.143 4.670 5.682 4.211 5.114 5.011 4.904 4.973 4.806 4.494 3.973 3.884 4.007 4.386 4.718 4.376 4.573 4.774 4.655 5.142 4.675 5.456 5.181 4.213 4.569 4.608 4.487 4.848 5.102 4.953 4.541 4.328 3.496 3.410 3.211 3.787 4.121 4.275 4.405 4.722 3.875 3.824 3.754 3.229 3.128 3.975 3.382 4.213 3.842 4.560 4.374 4.571 4.887 3.642 3.610 2.245 1.087 
0.908 1.226 2.080 3.026 4.574 4.259 4.239 4.943 4.710 4.709 4.624 4.745 4.075 3.784 3.782 4.698 4.527 4.470 4.261 4.421 4.541 5.101 5.217 5.715 4.893 5.231 4.547 4.278 4.285 5.035 4.317 4.461 4.399 4.352 4.828 4.376 4.304 4.892 4.092 4.720 5.056 4.893 4.869 4.540 4.066 4.483 3.869 4.098 3.916 5.176 4.199 4.476 5.303 5.020 4.099 5.563 5.079 4.639 4.300 3.958 4.267 3.992 4.347 3.728 4.321 4.243 5.288 4.980 5.402 5.323 4.846 4.313 5.406 4.711 4.939 4.558 5.178 4.471 5.064 4.081 3.198 3.648 4.566 3.758 4.711 4.784 5.562 4.457 4.347 3.991 3.869 2.695 3.868 3.742 3.520 3.869 4.590 4.777 4.180 4.820 3.848 2.808 1.631 1.019 
0.877 1.201 1.986 2.926 3.406 4.057 4.068 5.710 4.818 5.501 4.561 4.331 4.372 4.171 4.218 4.900 4.489 5.331 4.638 4.815 4.498 4.433 4.935 5.303 4.429 4.577 4.785 4.466 4.707 4.442 5.647 5.249 5.243 5.018 3.998 4.777 4.793 4.197 4.231 4.581 4.767 4.769 4.737 5.410 4.717 5.521 4.168 4.338 4.599 5.182 4.877 4.444 4.415 4.218 4.889 4.500 4.760 4.124 4.364 4.152 3.760 4.534 5.265 3.910 4.682 4.960 5.281 5.153 5.076 4.526 4.483 4.408 5.287 4.761 4.755 5.070 4.493 4.374 5.003 3.339 3.287 3.331 4.520 3.679 4.181 4.816 4.572 4.770 5.159 4.039 4.012 3.659 3.416 3.293 3.016 3.861 3.551 4.328 4.385 5.028 3.405 3.114 2.017 1.084 
0.793 1.039 1.578 2.511 3.184 4.314 4.192 5.260 5.587 5.014 4.010 3.989 3.587 4.316 4.581 5.917 5.754 5.194 4.593 4.761 4.664 4.346 5.378 5.142 4.314 4.063 4.065 4.237 4.341 4.380 5.031 4.897 5.068 4.783 4.368 4.234 4.155 4.826 4.637 4.141 4.034 4.381 3.789 4.722 4.268 5.114 5.486 4.744 4.597 4.750 4.177 4.558 4.997 4.572 4.742 4.648 4.737 4.131 4.224 3.720 4.143 3.691 3.550 3.965 3.641 5.094 4.987 4.827 4.291 4.340 4.577 4.712 4.421 4.848 4.726 4.074 5.191 4.792 5.013 4.191 3.634 3.916 4.991 4.509 4.970 5.875 5.542 4.881 5.043 4.982 4.078 4.306 4.051 4.028 3.428 3.883 3.698 4.422 3.854 4.347 3.319 2.949 1.652 0.682 
0.587 0.972 1.378 2.474 3.133 3.622 4.176 5.092 5.324 5.569 4.761 4.428 3.408 4.781 4.596 4.845 5.561 4.860 5.098 4.241 4.678 3.783 3.889 4.364 3.531 3.528 3.811 3.708 4.144 4.477 4.676 5.140 4.601 4.438 4.073 4.361 4.417 4.991 3.663 4.190 4.384 4.698 4.750 5.186 5.227 5.062 5.463 5.009 5.058 4.459 4.409 4.701 4.956 4.899 4.993 5.245 4.185 4.368 4.963 4.657 3.937 4.490 3.924 5.026 3.723 4.988 4.963 5.527 5.144 4.608 3.556 4.037 4.512 4.339 5.869 5.324 4.592 4.244 4.608 3.980 3.400 3.431 4.057 4.099 4.875 5.321 5.188 4.867 4.560 4.678 3.242 4.266 4.071 4.060 3.418 3.798 3.828 3.537 3.390 4.247 3.232 2.615 2.275 1.486 
0.666 0.799 1.580 2.093 3.250 3.991 3.893 4.461 4.654 5.220 3.748 3.945 4.510 4.732 5.013 4.153 5.164 4.676 5.058 4.122 4.855 3.734 3.374 4.369 3.104 3.636 4.221 4.462 4.707 4.568 4.461 4.412 3.777 4.041 3.287 4.325 3.805 4.122 4.247 4.231 4.491 4.083 4.265 4.916 4.952 5.398 5.211 5.302 4.550 4.856 4.308 4.262 4.229 4.989 4.421 5.350 5.457 4.581 3.754 3.685 3.376 4.422 3.533 3.963 4.325 4.611 5.362 5.015 3.981 3.452 4.516 4.425 4.856 5.032 5.128 5.313 4.968 4.425 4.263 3.034 3.106 2.960 3.999 4.447 4.909 5.121 5.196 4.828 3.984 4.481 4.424 3.767 3.502 3.390 3.588 3.605 4.382 4.086 3.371 3.770 3.152 3.218 2.183 1.491 
0.552 1.139 1.638 2.381 2.948 3.752 4.530 4.626 4.666 4.868 4.626 3.805 3.482 3.875 4.467 3.863 4.896 4.090 4.432 4.278 4.247 4.070 3.867 3.174 2.869 3.365 3.749 4.294 4.350 4.813 4.734 4.472 4.315 4.825 4.132 3.778 4.263 4.113 4.160 4.112 4.594 5.285 4.757 5.645 4.731 4.318 4.707 4.570 4.621 4.816 4.129 5.151 4.956 5.011 4.918 5.341 4.808 4.760 4.863 4.681 4.225 3.632 3.882 4.359 4.840 5.333 5.034 5.323 4.859 4.273 4.158 4.485 4.848 4.597 5.335 4.771 4.880 3.937 4.962 3.785 3.759 3.126 4.048 3.238 3.840 4.241 3.392 3.741 4.271 3.982 4.818 4.253 3.803 3.376 2.960 3.528 3.435 3.736 3.828 4.630 4.071 3.113 2.680 1.576 
0.569 1.048 1.979 3.036 3.986 3.538 4.082 4.093 4.216 4.546 4.492 3.775 3.786 3.709 3.544 3.220 4.107 4.377 4.566 4.556 4.761 3.805 3.764 3.557 4.121 3.142 3.934 4.690 4.288 5.477 5.078 5.101 4.930 4.430 4.962 3.994 4.576 4.467 4.281 5.229 4.753 4.524 4.132 5.117 5.165 4.971 4.161 4.514 4.653 4.608 4.012 3.242 3.982 5.076 4.969 4.205 5.151 4.539 4.270 4.047 4.101 4.113 4.209 5.059 3.936 4.672 4.759 4.732 4.653 3.768 4.454 4.721 4.281 3.586 4.743 3.678 4.480 4.422 4.646 4.400 4.533 4.219 4.091 3.815 4.216 3.477 3.998 3.750 3.934 3.441 4.525 3.967 2.711 3.793 4.250 3.674 3.878 3.776 4.549 4.701 4.398 3.599 2.797 1.769 
1.041 1.023 2.312 2.664 4.532 3.893 4.355 4.495 3.742 4.501 4.686 4.352 3.847 3.568 3.190 2.884 3.796 4.772 4.543 4.307 4.779 3.533 4.233 4.134 3.273 4.097 4.226 4.503 5.486 5.330 5.787 5.359 5.037 4.118 4.264 4.267 4.326 4.210 4.884 4.920 5.491 5.247 4.948 5.460 4.578 4.757 4.517 4.528 4.226 4.673 4.480 4.238 4.746 4.964 4.834 4.739 4.245 4.222 4.214 4.752 4.792 5.182 4.415 4.602 4.444 4.223 4.618 4.927 4.939 4.477 4.624 3.715 4.306 3.261 4.549 4.784 4.062 4.703 5.498 4.219 3.616 4.244 4.420 4.154 4.333 4.363 4.548 4.149 4.517 4.369 4.170 4.325 3.949 3.787 3.990 3.418 4.551 4.740 5.300 5.058 4.739 3.776 3.244 1.943 
1.188 1.264 2.527 2.662 3.730 3.092 3.867 4.352 5.298 4.973 4.397 4.160 3.507 4.260 3.643 3.578 4.207 4.297 4.273 3.878 4.177 4.200 3.043 3.539 3.678 3.787 4.210 4.613 5.080 5.291 5.977 5.743 6.163 5.390 4.874 4.762 5.454 4.796 4.974 5.330 5.277 5.312 5.485 4.520 4.338 4.484 4.437 4.190 4.546 5.006 4.676 4.361 4.375 3.936 3.744 3.867 3.865 5.005 4.876 5.411 5.304 4.764 4.260 4.468 4.004 4.235 4.344 4.760 3.880 3.226 3.951 3.973 3.673 3.664 4.666 4.066 4.227 4.008 5.250 4.929 5.047 4.943 4.602 4.233 3.798 4.264 4.768 4.799 4.456 4.669 4.935 4.247 3.788 3.959 4.231 4.295 4.100 4.287 5.332 5.534 4.910 4.025 2.689 1.437 
1.121 1.116 2.302 3.074 3.784 3.758 3.872 3.968 4.431 4.998 4.463 4.680 3.928 4.320 4.370 4.062 4.195 4.180 4.354 3.929 4.154 4.268 3.760 4.451 4.441 3.949 4.304 4.595 4.677 5.749 5.453 6.009 6.050 5.391 4.640 4.606 4.950 4.666 4.597 5.321 5.118 4.775 5.248 4.950 4.681 4.621 4.419 4.826 5.006 5.155 5.114 4.292 4.198 4.323 3.799 3.741 3.770 4.449 5.491 6.312 5.595 5.544 5.016 4.957 3.525 4.441 4.137 4.463 4.484 3.266 3.977 3.746 3.821 4.123 4.397 4.159 4.367 4.323 4.935 5.319 5.017 4.456 5.121 4.224 3.351 4.505 4.804 5.124 5.143 4.906 5.113 5.105 3.923 4.033 4.493 4.123 4.858 4.600 5.184 5.920 5.119 3.757 2.572 1.480 
0.831 1.177 1.772 2.429 3.707 3.243 4.279 4.677 3.892 4.749 4.767 4.802 5.039 4.916 4.434 3.994 3.982 4.744 4.141 4.160 3.930 4.292 4.058 3.709 3.636 3.964 4.101 4.869 5.004 4.811 5.470 6.030 5.417 5.855 4.698 5.609 5.229 5.155 4.720 4.490 5.414 5.026 4.984 5.114 4.426 4.440 4.565 4.428 4.419 5.262 4.848 4.276 3.352 3.396 3.455 3.957 4.218 4.979 4.862 5.574 5.557 5.878 4.667 5.043 4.343 4.058 4.653 4.606 3.389 3.723 3.760 4.428 4.606 4.562 4.848 4.413 4.612 4.189 4.769 4.271 4.464 3.917 4.395 3.733 4.491 4.539 4.760 5.154 4.789 5.159 4.930 4.724 4.346 3.854 4.460 4.346 4.125 4.536 5.055 5.361 4.206 3.629 3.122 1.449 
0.787 0.942 1.944 2.696 3.599 3.330 3.634 4.501 4.856 4.868 5.110 5.116 4.562 5.423 4.456 4.245 4.184 3.933 4.351 4.690 4.872 4.547 3.988 4.401 4.450 4.765 4.594 4.799 5.109 5.701 4.651 5.096 5.123 5.524 5.323 5.553 5.456 4.972 4.443 4.332 4.468 4.952 4.779 4.087 4.127 4.468 4.100 4.560 5.093 5.161 3.981 4.578 3.347 3.958 3.811 4.505 4.630 5.052 5.449 4.994 5.115 4.646 4.624 4.537 4.432 4.024 3.813 4.704 3.785 4.355 4.305 4.520 4.650 5.878 5.193 5.373 5.795 4.666 4.909 3.535 4.609 3.384 4.693 3.598 3.899 3.902 4.684 5.241 5.221 5.148 3.981 4.138 4.784 4.241 4.411 4.653 4.633 4.554 4.595 4.908 4.622 3.917 2.498 1.224 
1.041 1.045 2.256 2.828 4.211 3.586 3.353 3.575 3.806 4.485 4.102 4.877 4.910 5.237 4.844 4.877 3.816 4.520 4.701 4.727 4.718 4.518 4.999 4.609 4.763 4.143 4.265 5.027 3.970 3.859 4.053 4.809 5.442 5.513 5.135 4.662 5.953 5.009 4.630 4.110 4.118 4.275 4.469 3.685 4.012 4.584 3.522 4.179 4.172 5.259 4.247 4.123 3.700 3.501 3.534 4.039 5.101 4.601 5.159 4.989 5.726 4.430 5.230 4.380 4.077 4.352 3.990 4.313 3.834 4.712 4.588 5.086 4.803 5.151 5.207 5.033 5.421 4.688 4.928 3.596 4.290 2.746 3.545 3.052 3.558 4.545 5.061 5.080 5.313 4.933 4.194 4.298 4.168 5.161 4.714 4.745 4.629 3.574 4.143 4.936 4.004 3.719 3.035 1.513 
0.814 1.177 1.881 2.888 3.930 4.025 4.539 4.020 4.318 4.422 4.297 4.912 4.567 5.435 4.628 4.875 4.624 5.146 4.520 4.951 5.019 4.433 4.584 4.501 4.766 5.001 4.807 4.451 4.167 3.796 4.164 3.940 5.074 5.263 5.159 5.136 5.243 5.171 4.768 3.985 4.891 4.542 4.569 4.292 3.868 3.732 4.215 4.792 4.587 4.946 3.968 3.613 4.333 4.210 4.489 4.068 4.845 4.423 4.628 4.186 5.172 4.301 4.422 4.006 4.283 4.118 4.282 4.362 4.270 4.519 4.124 4.510 4.824 5.563 5.618 4.804 5.680 4.766 4.197 3.619 3.800 3.895 4.199 4.051 4.364 4.272 4.461 5.020 4.837 4.893 4.009 4.244 4.300 4.167 4.396 4.566 4.572 4.343 4.559 4.206 3.910 3.737 2.511 1.377 
0.491 0.828 1.481 2.184 3.516 4.036 4.263 3.755 3.228 3.166 3.293 3.481 3.843 4.645 3.516 4.635 4.065 4.098 4.515 4.281 4.875 3.626 3.719 4.282 4.227 3.671 3.551 3.392 4.509 3.822 3.041 3.305 2.791 3.967 4.356 4.770 4.294 4.117 3.899 3.210 4.318 3.665 3.849 3.455 3.376 3.447 2.747 3.176 4.310 3.918 4.491 2.931 3.881 3.970 3.641 3.849 3.857 4.184 4.126 3.824 3.965 3.552 4.113 4.257 4.097 3.272 3.207 3.770 3.559 4.158 3.791 3.475 4.107 3.819 3.537 3.997 4.574 3.744 3.402 3.257 2.679 3.303 2.931 3.326 3.961 4.236 4.593 4.634 4.775 4.571 3.461 3.535 3.977 4.105 4.192 4.291 4.241 3.254 3.792 4.105 3.579 2.917 2.430 1.376 
0.308 0.605 1.355 1.875 2.726 3.029 3.821 3.099 2.500 2.663 2.427 2.994 3.054 3.292 4.054 3.993 4.031 3.538 3.735 3.475 3.361 3.659 3.781 2.887 3.509 2.843 3.167 3.212 2.664 3.029 2.528 2.707 2.344 3.148 2.835 3.475 3.706 3.511 3.522 3.221 3.216 2.609 3.362 2.752 2.736 2.410 2.602 2.826 3.364 3.304 2.909 2.853 3.482 3.265 3.615 3.035 3.586 3.360 3.318 3.141 3.138 3.448 3.469 3.017 2.698 2.925 3.214 2.487 2.051 2.585 2.404 2.457 2.213 2.980 2.874 2.860 3.230 3.795 3.157 2.658 2.525 2.446 2.380 3.559 3.430 3.670 3.593 3.874 4.080 3.406 2.465 2.479 2.304 2.644 2.986 2.976 3.246 2.334 3.328 2.846 2.357 2.358 1.609 0.697 
0.109 0.328 1.124 1.537 2.206 2.000 2.034 1.378 1.406 0.983 1.396 1.441 1.930 2.304 1.966 2.216 2.341 1.963 2.075 1.709 1.783 1.534 1.534 1.251 2.058 2.035 1.909 2.061 1.745 1.546 1.076 1.543 1.095 1.971 1.755 1.919 2.153 1.625 1.882 1.980 2.478 1.778 1.559 1.304 1.214 1.021 1.873 1.196 1.611 2.205 1.928 1.865 1.662 2.073 1.865 1.506 2.018 1.368 1.773 2.020 2.113 1.817 1.892 2.175 1.919 1.600 1.471 1.635 1.267 1.632 1.435 0.802 1.205 1.453 1.546 1.324 1.622 1.671 1.057 1.364 1.413 1.922 1.715 1.683 1.956 2.463 2.132 2.204 2.208 1.830 1.411 1.704 1.705 1.913 1.690 1.938 2.031 1.730 1.821 1.438 1.589 0.799 0.717 0.533 
0.010 0.043 0.293 0.624 0.801 0.967 1.319 1.142 0.824 0.523 0.576 0.684 1.051 1.040 1.316 1.603 1.664 1.456 1.473 1.593 1.328 1.083 1.336 0.983 0.783 1.109 1.071 0.982 1.285 0.968 0.839 0.988 0.573 0.670 0.991 1.174 1.036 1.143 0.774 1.002 1.284 0.745 0.869 1.055 0.922 0.424 0.573 0.856 0.839 0.927 1.238 0.950 1.080 1.219 1.256 1.200 0.801 0.980 1.029 0.799 0.948 0.799 0.980 1.147 0.865 0.593 0.774 0.878 0.493 0.325 0.633 0.678 0.290 0.496 0.759 0.799 0.814 0.840 1.018 0.721 0.609 0.743 0.761 1.104 1.297 1.253 1.214 1.286 1.238 1.149 0.734 0.643 0.753 0.520 0.724 1.169 0.796 0.765 1.006 0.930 0.689 0.566 0.554 0.169 
GPGPU-Sim: *** exit detected ***
